WARNING: sun.reflect.Reflection.getCallerClass is not supported. This will impact performance.
2024-03-18T13:46:03,090  INFO CommandLine:505 Received 0 positional command line arguments:
2024-03-18T13:46:03,093  INFO CommandLine:506    
2024-03-18T13:46:03,093  INFO CommandLine:528 Received 3 command line options with 0 prefixes:
2024-03-18T13:46:03,093  INFO CommandLine:533    config-path = /home/muaa/ABM_DATA/switzerland_2020_baseline/switzerland_config_mod.xml
2024-03-18T13:46:03,094  INFO CommandLine:533    extent-path = /home/muaa/ABM_DATA/ShapeFiles/Frauenfeld/Frauenfeld.shp
2024-03-18T13:46:03,094  INFO CommandLine:533    output-path = /home/muaa/FrauenfeldScenario
2024-03-18T13:46:03,868  INFO IOUtils:187 Resolved /home/muaa/ABM_DATA/switzerland_2020_baseline/switzerland_config_mod.xml to /home/muaa/ABM_DATA/switzerland_2020_baseline/switzerland_config_mod.xml
2024-03-18T13:46:03,871  INFO Config:572 setting context to [file:/home/muaa/2023_ABMT_Corrado/abmt2023/]
2024-03-18T13:46:03,918  INFO Version:21 HV000001: Hibernate Validator null
2024-03-18T13:46:04,038  INFO MatsimXmlParser:160 starting to parse xml from url file:/home/muaa/ABM_DATA/switzerland_2020_baseline/switzerland_config_mod.xml ...
2024-03-18T13:46:04,064  INFO ConfigReader:102 using config_v2-reader
2024-03-18T13:46:04,065  INFO MatsimXmlParser:276 Trying to load http://www.matsim.org/files/dtd/config_v2.dtd. In some cases (e.g. network interface up but no connection), this may take a bit.
2024-03-18T13:46:04,345  INFO GlobalConfigGroup:92 setting number of threads to: 4
2024-03-18T13:46:04,348  WARN PlanCalcScoreConfigGroup$ReflectiveDelegate:1622 Setting pathSizeLogitBeta different from zero is experimental.  KN, Sep'08
2024-03-18T13:46:04,380  INFO PlanCalcScoreConfigGroup:554 scoring parameters for subpopulation null were just replaced.
2024-03-18T13:46:04,383  WARN PlansCalcRouteConfigGroup:342 The first mode routing params that are explicitly defined clear the default mode routing params.  This functionality was removed for 
2024-03-18T13:46:04,383  WARN PlansCalcRouteConfigGroup:343     some weeks in the development head, after release 11.x, and before release 12.x; it is now back.  If you want to avoid this 
2024-03-18T13:46:04,383  WARN PlansCalcRouteConfigGroup:344     warning, use clearModeRoutingParams(true) in code, and "clearDefaultTeleportedModeParams"=true in xml config.
2024-03-18T13:46:04,395  INFO Config:572 setting context to [file:/home/muaa/ABM_DATA/switzerland_2020_baseline/switzerland_config_mod.xml]
2024-03-18T13:46:04,424  INFO ScenarioLoaderImpl:134 loading network from file:/home/muaa/ABM_DATA/switzerland_2020_baseline/switzerland_network.xml.gz
2024-03-18T13:46:04,426  INFO MatsimXmlParser:160 starting to parse xml from url file:/home/muaa/ABM_DATA/switzerland_2020_baseline/switzerland_network.xml.gz ...
2024-03-18T13:46:04,542  INFO MatsimNetworkReader:120 using network_v2-reader.
2024-03-18T13:46:04,542  INFO MatsimXmlParser:276 Trying to load http://www.matsim.org/files/dtd/network_v2.dtd. In some cases (e.g. network interface up but no connection), this may take a bit.
2024-03-18T13:46:04,574  INFO NetworkImpl:163  node # 1
2024-03-18T13:46:04,575  INFO NetworkImpl:163  node # 4
2024-03-18T13:46:04,578  INFO NetworkImpl:163  node # 16
2024-03-18T13:46:04,584  INFO NetworkImpl:163  node # 64
2024-03-18T13:46:04,603  INFO NetworkImpl:163  node # 256
2024-03-18T13:46:04,635  INFO NetworkImpl:163  node # 1024
2024-03-18T13:46:04,683  INFO NetworkImpl:163  node # 4096
2024-03-18T13:46:04,821  INFO NetworkImpl:163  node # 16384
2024-03-18T13:46:05,207  INFO NetworkImpl:163  node # 65536
2024-03-18T13:46:06,116  INFO NetworkImpl:163  node # 262144
2024-03-18T13:46:07,052  INFO NetworkImpl:159  link # 1
2024-03-18T13:46:07,054  INFO NetworkImpl:159  link # 4
2024-03-18T13:46:07,059  INFO NetworkImpl:159  link # 16
2024-03-18T13:46:07,075  INFO NetworkImpl:159  link # 64
2024-03-18T13:46:07,113  INFO NetworkImpl:159  link # 256
2024-03-18T13:46:07,185  INFO NetworkImpl:159  link # 1024
2024-03-18T13:46:07,322  INFO NetworkImpl:159  link # 4096
2024-03-18T13:46:07,475  WARN LinkImpl:125 length=0.0 of link id 1008265 may cause problems
2024-03-18T13:46:07,476  WARN LinkImpl:127  Future occurences of this logging statement are suppressed.
2024-03-18T13:46:07,764  INFO NetworkImpl:159  link # 16384
2024-03-18T13:46:08,633  INFO NetworkImpl:159  link # 65536
2024-03-18T13:46:12,391  INFO NetworkImpl:159  link # 262144
2024-03-18T13:46:25,205  INFO ScenarioLoaderImpl:159 loading facilities from file:/home/muaa/ABM_DATA/switzerland_2020_baseline/switzerland_facilities.xml.gz
2024-03-18T13:46:25,207  INFO MatsimXmlParser:160 starting to parse xml from url file:/home/muaa/ABM_DATA/switzerland_2020_baseline/switzerland_facilities.xml.gz ...
2024-03-18T13:46:25,210  INFO MatsimFacilitiesReader:137 using facilities_v1-reader.
2024-03-18T13:46:25,210  INFO MatsimXmlParser:276 Trying to load http://www.matsim.org/files/dtd/facilities_v1.dtd. In some cases (e.g. network interface up but no connection), this may take a bit.
2024-03-18T13:46:48,592  INFO ScenarioLoaderImpl:168 loaded 4487860 facilities from file:/home/muaa/ABM_DATA/switzerland_2020_baseline/switzerland_facilities.xml.gz
2024-03-18T13:46:48,592  INFO ScenarioLoaderImpl:187 no facility-attributes file set in config, not loading any facility attributes
2024-03-18T13:46:48,593  INFO ScenarioLoaderImpl:195 loading population from file:/home/muaa/ABM_DATA/switzerland_2020_baseline/switzerland_population.xml.gz
2024-03-18T13:46:48,596  INFO MatsimXmlParser:160 starting to parse xml from url file:/home/muaa/ABM_DATA/switzerland_2020_baseline/switzerland_population.xml.gz ...
2024-03-18T13:46:48,600  INFO PopulationReader:123 using population_v6-reader.
2024-03-18T13:46:48,600  INFO MatsimXmlParser:276 Trying to load http://www.matsim.org/files/dtd/population_v6.dtd. In some cases (e.g. network interface up but no connection), this may take a bit.
2024-03-18T13:46:48,634  WARN PopulationReaderMatsimV6:213 coordinate transformation defined both in config and in input file: setting from input file will be used
2024-03-18T13:46:48,657  INFO PopulationImpl:105  person # 1
2024-03-18T13:46:48,711  INFO PopulationImpl:105  person # 4
2024-03-18T13:46:48,725  INFO PopulationImpl:105  person # 16
2024-03-18T13:46:48,770  INFO PopulationImpl:105  person # 64
2024-03-18T13:46:49,562  INFO PopulationImpl:105  person # 256
2024-03-18T13:46:50,035  INFO PopulationImpl:105  person # 1024
2024-03-18T13:46:51,427  INFO PopulationImpl:105  person # 4096
2024-03-18T13:46:55,353  INFO PopulationImpl:105  person # 16384
2024-03-18T13:47:07,364  INFO PopulationImpl:105  person # 65536
2024-03-18T13:47:45,367  INFO PopulationImpl:105  person # 262144
2024-03-18T13:50:15,677  INFO PopulationImpl:105  person # 1048576
2024-03-18T14:00:52,619  INFO PopulationImpl:105  person # 4194304
2024-03-18T14:16:10,506  INFO PopulationUtils:1087  person # 8957110
2024-03-18T14:16:10,507  INFO ScenarioLoaderImpl:243 no person-attributes file set in config, not loading any person attributes
2024-03-18T14:16:10,508  INFO ScenarioLoaderImpl:250 loading households from file:/home/muaa/ABM_DATA/switzerland_2020_baseline/switzerland_households.xml.gz
2024-03-18T14:16:10,510  INFO MatsimXmlParser:160 starting to parse xml from url file:/home/muaa/ABM_DATA/switzerland_2020_baseline/switzerland_households.xml.gz ...
2024-03-18T14:16:10,518  INFO MatsimXmlParser:276 Trying to load http://www.matsim.org/files/dtd/households_v1.0.xsd. In some cases (e.g. network interface up but no connection), this may take a bit.
2024-03-18T14:16:10,833  INFO MatsimXmlParser:276 Trying to load http://www.matsim.org/files/dtd/matsimCommon.xsd. In some cases (e.g. network interface up but no connection), this may take a bit.
2024-03-18T14:16:10,892  INFO Counter:69   households # 1
2024-03-18T14:16:10,893  INFO Counter:69   households # 2
2024-03-18T14:16:10,894  INFO Counter:69   households # 4
2024-03-18T14:16:10,897  INFO Counter:69   households # 8
2024-03-18T14:16:10,902  INFO Counter:69   households # 16
2024-03-18T14:16:10,911  INFO Counter:69   households # 32
2024-03-18T14:16:10,927  INFO Counter:69   households # 64
2024-03-18T14:16:10,948  INFO Counter:69   households # 128
2024-03-18T14:16:10,983  INFO Counter:69   households # 256
2024-03-18T14:16:11,022  INFO Counter:69   households # 512
2024-03-18T14:16:11,082  INFO Counter:69   households # 1024
2024-03-18T14:16:11,185  INFO Counter:69   households # 2048
2024-03-18T14:16:11,302  INFO Counter:69   households # 4096
2024-03-18T14:16:11,672  INFO Counter:69   households # 8192
2024-03-18T14:16:11,857  INFO Counter:69   households # 16384
2024-03-18T14:16:12,145  INFO Counter:69   households # 32768
2024-03-18T14:16:12,789  INFO Counter:69   households # 65536
2024-03-18T14:16:14,126  INFO Counter:69   households # 131072
2024-03-18T14:16:16,552  INFO Counter:69   households # 262144
2024-03-18T14:16:23,508  INFO Counter:69   households # 524288
2024-03-18T14:16:39,562  INFO Counter:69   households # 1048576
2024-03-18T14:17:10,408  INFO Counter:69   households # 2097152
2024-03-18T14:17:52,411  INFO Counter:74   households # 3817302
2024-03-18T14:17:52,412  INFO ScenarioLoaderImpl:252 households loaded.
2024-03-18T14:17:52,412  INFO ScenarioLoaderImpl:273 no household-attributes file set in config, not loading any household attributes
2024-03-18T14:17:52,413  INFO MatsimXmlParser:160 starting to parse xml from url file:/home/muaa/ABM_DATA/switzerland_2020_baseline/switzerland_transit_schedule.xml.gz ...
2024-03-18T14:17:52,416  INFO MatsimXmlParser:276 Trying to load http://www.matsim.org/files/dtd/transitSchedule_v2.dtd. In some cases (e.g. network interface up but no connection), this may take a bit.
2024-03-18T14:17:56,883  INFO ScenarioLoaderImpl:324 loading transit vehicles from switzerland_transit_vehicles.xml.gz
2024-03-18T14:17:56,884  INFO MatsimXmlParser:160 starting to parse xml from url file:/home/muaa/ABM_DATA/switzerland_2020_baseline/switzerland_transit_vehicles.xml.gz ...
2024-03-18T14:17:56,886  INFO MatsimXmlParser:276 Trying to load http://www.matsim.org/files/dtd/vehicleDefinitions_v1.0.xsd. In some cases (e.g. network interface up but no connection), this may take a bit.
2024-03-18T14:17:56,914  INFO MatsimXmlParser:276 Trying to load http://www.matsim.org/files/dtd/matsimCommon.xsd. In some cases (e.g. network interface up but no connection), this may take a bit.
2024-03-18T14:17:56,942  INFO MatsimXmlParser:276 Trying to load http://www.matsim.org/files/dtd/vehicleDefinitionsEnumTypes.xsd. In some cases (e.g. network interface up but no connection), this may take a bit.
2024-03-18T14:17:56,985  INFO MatsimVehicleReader$VehicleReader:75 Found following schemaLocation in vehicle definition file: http://www.matsim.org/files/dtd http://www.matsim.org/files/dtd/vehicleDefinitions_v1.0.xsd
2024-03-18T14:17:56,986  INFO VehicleReaderV1:18 Using org.matsim.vehicles.VehicleReaderV1
2024-03-18T14:17:56,999  INFO Counter:69 [VehiclesImpl] added vehicle # 1
2024-03-18T14:17:56,999  INFO Counter:69 [VehiclesImpl] added vehicle # 2
2024-03-18T14:17:57,000  INFO Counter:69 [VehiclesImpl] added vehicle # 4
2024-03-18T14:17:57,000  INFO Counter:69 [VehiclesImpl] added vehicle # 8
2024-03-18T14:17:57,000  INFO Counter:69 [VehiclesImpl] added vehicle # 16
2024-03-18T14:17:57,001  INFO Counter:69 [VehiclesImpl] added vehicle # 32
2024-03-18T14:17:57,002  INFO Counter:69 [VehiclesImpl] added vehicle # 64
2024-03-18T14:17:57,004  INFO Counter:69 [VehiclesImpl] added vehicle # 128
2024-03-18T14:17:57,006  INFO Counter:69 [VehiclesImpl] added vehicle # 256
2024-03-18T14:17:57,011  INFO Counter:69 [VehiclesImpl] added vehicle # 512
2024-03-18T14:17:57,019  INFO Counter:69 [VehiclesImpl] added vehicle # 1024
2024-03-18T14:17:57,029  INFO Counter:69 [VehiclesImpl] added vehicle # 2048
2024-03-18T14:17:57,044  INFO Counter:69 [VehiclesImpl] added vehicle # 4096
2024-03-18T14:17:57,065  INFO Counter:69 [VehiclesImpl] added vehicle # 8192
2024-03-18T14:17:57,104  INFO Counter:69 [VehiclesImpl] added vehicle # 16384
2024-03-18T14:17:57,177  INFO Counter:69 [VehiclesImpl] added vehicle # 32768
2024-03-18T14:17:57,306  INFO Counter:69 [VehiclesImpl] added vehicle # 65536
2024-03-18T14:17:57,424  INFO Counter:69 [VehiclesImpl] added vehicle # 131072
2024-03-18T14:18:56,460  INFO ScenarioValidator:198 Scenario is valid!
2024-03-18T14:18:56,463  INFO NetworkImpl:163  node # 1
2024-03-18T14:18:56,463  INFO NetworkImpl:163  node # 4
2024-03-18T14:18:56,463  INFO NetworkImpl:163  node # 16
2024-03-18T14:18:56,463  INFO NetworkImpl:163  node # 64
2024-03-18T14:18:56,463  INFO NetworkImpl:163  node # 256
2024-03-18T14:18:56,464  INFO NetworkImpl:163  node # 1024
2024-03-18T14:18:56,465  INFO NetworkImpl:163  node # 4096
2024-03-18T14:18:56,469  INFO NetworkImpl:163  node # 16384
2024-03-18T14:18:56,485  INFO NetworkImpl:163  node # 65536
2024-03-18T14:18:56,526  INFO NetworkImpl:163  node # 262144
2024-03-18T14:18:56,561  INFO NetworkImpl:159  link # 1
2024-03-18T14:18:56,561  INFO NetworkImpl:159  link # 4
2024-03-18T14:18:56,561  INFO NetworkImpl:159  link # 16
2024-03-18T14:18:56,561  INFO NetworkImpl:159  link # 64
2024-03-18T14:18:56,563  INFO NetworkImpl:159  link # 256
2024-03-18T14:18:56,568  INFO NetworkImpl:159  link # 1024
2024-03-18T14:18:56,584  INFO NetworkImpl:159  link # 4096
2024-03-18T14:18:56,607  INFO NetworkImpl:159  link # 16384
2024-03-18T14:18:56,692  INFO NetworkImpl:159  link # 65536
2024-03-18T14:18:56,986  INFO NetworkImpl:159  link # 262144
WARNING: An illegal reflective access operation has occurred
WARNING: Illegal reflective access by com.google.inject.internal.cglib.core.$ReflectUtils$1 (file:/home/muaa/2023_ABMT_Corrado/abmt2023/target/abmt2023-0.0.1-SNAPSHOT.jar) to method java.lang.ClassLoader.defineClass(java.lang.String,byte[],int,int,java.security.ProtectionDomain)
WARNING: Please consider reporting this to the maintainers of com.google.inject.internal.cglib.core.$ReflectUtils$1
WARNING: Use --illegal-access=warn to enable warnings of further illegal reflective access operations
WARNING: All illegal access operations will be denied in a future release
2024-03-18T14:18:59,377  INFO SimStepParallelEventsManagerImpl:79 number of threads=1
2024-03-18T14:18:59,384  INFO EventsManagerImpl:160 adding Event-Handler: org.matsim.core.trafficmonitoring.TravelTimeCalculator
2024-03-18T14:18:59,384  INFO EventsManagerImpl:166   org.matsim.api.core.v01.events.handler.LinkEnterEventHandler
2024-03-18T14:18:59,385  INFO EventsManagerImpl:227     > org.matsim.api.core.v01.events.LinkEnterEvent
2024-03-18T14:18:59,385  INFO EventsManagerImpl:166   org.matsim.api.core.v01.events.handler.LinkLeaveEventHandler
2024-03-18T14:18:59,385  INFO EventsManagerImpl:227     > org.matsim.api.core.v01.events.LinkLeaveEvent
2024-03-18T14:18:59,385  INFO EventsManagerImpl:166   org.matsim.api.core.v01.events.handler.VehicleEntersTrafficEventHandler
2024-03-18T14:18:59,385  INFO EventsManagerImpl:227     > org.matsim.api.core.v01.events.VehicleEntersTrafficEvent
2024-03-18T14:18:59,385  INFO EventsManagerImpl:166   org.matsim.api.core.v01.events.handler.VehicleLeavesTrafficEventHandler
2024-03-18T14:18:59,385  INFO EventsManagerImpl:227     > org.matsim.api.core.v01.events.VehicleLeavesTrafficEvent
2024-03-18T14:18:59,386  INFO EventsManagerImpl:166   org.matsim.core.api.experimental.events.handler.VehicleArrivesAtFacilityEventHandler
2024-03-18T14:18:59,386  INFO EventsManagerImpl:227     > org.matsim.core.api.experimental.events.VehicleArrivesAtFacilityEvent
2024-03-18T14:18:59,386  INFO EventsManagerImpl:166   org.matsim.api.core.v01.events.handler.VehicleAbortsEventHandler
2024-03-18T14:18:59,386  INFO EventsManagerImpl:227     > org.matsim.api.core.v01.events.VehicleAbortsEvent
2024-03-18T14:18:59,386  INFO EventsManagerImpl:176 
2024-03-18T14:18:59,386  INFO EventsManagerImpl:160 adding Event-Handler: org.matsim.core.trafficmonitoring.TravelTimeCalculator
2024-03-18T14:18:59,386  INFO EventsManagerImpl:166   org.matsim.api.core.v01.events.handler.LinkEnterEventHandler
2024-03-18T14:18:59,386  INFO EventsManagerImpl:227     > org.matsim.api.core.v01.events.LinkEnterEvent
2024-03-18T14:18:59,386  INFO EventsManagerImpl:166   org.matsim.api.core.v01.events.handler.LinkLeaveEventHandler
2024-03-18T14:18:59,386  INFO EventsManagerImpl:227     > org.matsim.api.core.v01.events.LinkLeaveEvent
2024-03-18T14:18:59,386  INFO EventsManagerImpl:166   org.matsim.api.core.v01.events.handler.VehicleEntersTrafficEventHandler
2024-03-18T14:18:59,386  INFO EventsManagerImpl:227     > org.matsim.api.core.v01.events.VehicleEntersTrafficEvent
2024-03-18T14:18:59,386  INFO EventsManagerImpl:166   org.matsim.api.core.v01.events.handler.VehicleLeavesTrafficEventHandler
2024-03-18T14:18:59,387  INFO EventsManagerImpl:227     > org.matsim.api.core.v01.events.VehicleLeavesTrafficEvent
2024-03-18T14:18:59,387  INFO EventsManagerImpl:166   org.matsim.core.api.experimental.events.handler.VehicleArrivesAtFacilityEventHandler
2024-03-18T14:18:59,387  INFO EventsManagerImpl:227     > org.matsim.core.api.experimental.events.VehicleArrivesAtFacilityEvent
2024-03-18T14:18:59,387  INFO EventsManagerImpl:166   org.matsim.api.core.v01.events.handler.VehicleAbortsEventHandler
2024-03-18T14:18:59,387  INFO EventsManagerImpl:227     > org.matsim.api.core.v01.events.VehicleAbortsEvent
2024-03-18T14:18:59,387  INFO EventsManagerImpl:176 
2024-03-18T14:18:59,389  INFO Injector:81 === printInjector start ===
2024-03-18T14:18:59,390  INFO Injector:85 org.matsim.api.core.v01.Scenario 
2024-03-18T14:18:59,391  INFO Injector:86   --> provider: ConstantFactory{value=org.matsim.core.scenario.MutableScenario@f238e4f}[Scopes.SINGLETON]
2024-03-18T14:18:59,391  INFO Injector:87   --> source: org.matsim.core.scenario.ScenarioByInstanceModule.install(ScenarioByInstanceModule.java:52)
2024-03-18T14:18:59,391  INFO Injector:89   --> scope: eager singleton
2024-03-18T14:18:59,391  INFO Injector:94   ==full==> InstanceBinding{key=Key[type=org.matsim.api.core.v01.Scenario, annotation=[none]], source=org.matsim.core.scenario.ScenarioByInstanceModule.install(ScenarioByInstanceModule.java:52), instance=org.matsim.core.scenario.MutableScenario@f238e4f}
2024-03-18T14:18:59,391  INFO Injector:96 
2024-03-18T14:18:59,392  INFO Injector:85 org.matsim.pt.transitSchedule.api.TransitSchedule 
2024-03-18T14:18:59,392  INFO Injector:86   --> provider: Key[type=org.matsim.core.scenario.ScenarioByInstanceModule$TransitScheduleProvider, annotation=[none]]
2024-03-18T14:18:59,392  INFO Injector:87   --> source: org.matsim.core.scenario.ScenarioByInstanceModule.install(ScenarioByInstanceModule.java:54)
2024-03-18T14:18:59,392  INFO Injector:89   --> scope: Scopes.NO_SCOPE
2024-03-18T14:18:59,392  INFO Injector:94   ==full==> ProviderKeyBinding{key=Key[type=org.matsim.pt.transitSchedule.api.TransitSchedule, annotation=[none]], source=org.matsim.core.scenario.ScenarioByInstanceModule.install(ScenarioByInstanceModule.java:54), scope=Scopes.NO_SCOPE, provider=Key[type=org.matsim.core.scenario.ScenarioByInstanceModule$TransitScheduleProvider, annotation=[none]]}
2024-03-18T14:18:59,392  INFO Injector:96 
2024-03-18T14:18:59,392  INFO Injector:85 org.matsim.vehicles.Vehicles 
2024-03-18T14:18:59,392  INFO Injector:86   --> provider: Key[type=org.matsim.core.scenario.ScenarioByInstanceModule$TransitVehiclesProvider, annotation=[none]]
2024-03-18T14:18:59,392  INFO Injector:87   --> source: org.matsim.core.scenario.ScenarioByInstanceModule.install(ScenarioByInstanceModule.java:55)
2024-03-18T14:18:59,392  INFO Injector:89   --> scope: Scopes.NO_SCOPE
2024-03-18T14:18:59,392  INFO Injector:94   ==full==> ProviderKeyBinding{key=Key[type=org.matsim.vehicles.Vehicles, annotation=@org.matsim.pt.transitSchedule.api.Transit], source=org.matsim.core.scenario.ScenarioByInstanceModule.install(ScenarioByInstanceModule.java:55), scope=Scopes.NO_SCOPE, provider=Key[type=org.matsim.core.scenario.ScenarioByInstanceModule$TransitVehiclesProvider, annotation=[none]]}
2024-03-18T14:18:59,392  INFO Injector:96 
2024-03-18T14:18:59,392  INFO Injector:85 org.matsim.api.core.v01.population.PopulationFactory 
2024-03-18T14:18:59,395  INFO Injector:86   --> provider: @Provides org.matsim.core.scenario.ScenarioByInstanceModule.providePopulationFactory(ScenarioByInstanceModule.java:68)
2024-03-18T14:18:59,395  INFO Injector:87   --> source: org.matsim.api.core.v01.population.PopulationFactory org.matsim.core.scenario.ScenarioByInstanceModule.providePopulationFactory(org.matsim.api.core.v01.population.Population)
2024-03-18T14:18:59,395  INFO Injector:89   --> scope: Scopes.NO_SCOPE
2024-03-18T14:18:59,395  INFO Injector:94   ==full==> ProviderInstanceBinding{key=Key[type=org.matsim.api.core.v01.population.PopulationFactory, annotation=[none]], source=org.matsim.api.core.v01.population.PopulationFactory org.matsim.core.scenario.ScenarioByInstanceModule.providePopulationFactory(org.matsim.api.core.v01.population.Population), scope=Scopes.NO_SCOPE, provider=@Provides org.matsim.core.scenario.ScenarioByInstanceModule.providePopulationFactory(ScenarioByInstanceModule.java:68)}
2024-03-18T14:18:59,395  INFO Injector:96 
2024-03-18T14:18:59,395  INFO Injector:85 org.matsim.facilities.ActivityFacilities 
2024-03-18T14:18:59,395  INFO Injector:86   --> provider: @Provides org.matsim.core.scenario.ScenarioByInstanceModule.provideActivityFacilities(ScenarioByInstanceModule.java:72)
2024-03-18T14:18:59,395  INFO Injector:87   --> source: org.matsim.facilities.ActivityFacilities org.matsim.core.scenario.ScenarioByInstanceModule.provideActivityFacilities(org.matsim.api.core.v01.Scenario)
2024-03-18T14:18:59,395  INFO Injector:89   --> scope: Scopes.NO_SCOPE
2024-03-18T14:18:59,396  INFO Injector:94   ==full==> ProviderInstanceBinding{key=Key[type=org.matsim.facilities.ActivityFacilities, annotation=[none]], source=org.matsim.facilities.ActivityFacilities org.matsim.core.scenario.ScenarioByInstanceModule.provideActivityFacilities(org.matsim.api.core.v01.Scenario), scope=Scopes.NO_SCOPE, provider=@Provides org.matsim.core.scenario.ScenarioByInstanceModule.provideActivityFacilities(ScenarioByInstanceModule.java:72)}
2024-03-18T14:18:59,396  INFO Injector:96 
2024-03-18T14:18:59,396  INFO Injector:85 org.matsim.vehicles.Vehicles 
2024-03-18T14:18:59,396  INFO Injector:86   --> provider: @Provides org.matsim.core.scenario.ScenarioByInstanceModule.provideVehicles(ScenarioByInstanceModule.java:82)
2024-03-18T14:18:59,396  INFO Injector:87   --> source: org.matsim.vehicles.Vehicles org.matsim.core.scenario.ScenarioByInstanceModule.provideVehicles(org.matsim.api.core.v01.Scenario)
2024-03-18T14:18:59,396  INFO Injector:89   --> scope: Scopes.NO_SCOPE
2024-03-18T14:18:59,396  INFO Injector:94   ==full==> ProviderInstanceBinding{key=Key[type=org.matsim.vehicles.Vehicles, annotation=[none]], source=org.matsim.vehicles.Vehicles org.matsim.core.scenario.ScenarioByInstanceModule.provideVehicles(org.matsim.api.core.v01.Scenario), scope=Scopes.NO_SCOPE, provider=@Provides org.matsim.core.scenario.ScenarioByInstanceModule.provideVehicles(ScenarioByInstanceModule.java:82)}
2024-03-18T14:18:59,396  INFO Injector:96 
2024-03-18T14:18:59,396  INFO Injector:85 org.matsim.lanes.Lanes 
2024-03-18T14:18:59,396  INFO Injector:86   --> provider: @Provides org.matsim.core.scenario.ScenarioByInstanceModule.provideLanes(ScenarioByInstanceModule.java:87)
2024-03-18T14:18:59,396  INFO Injector:87   --> source: org.matsim.lanes.Lanes org.matsim.core.scenario.ScenarioByInstanceModule.provideLanes(org.matsim.api.core.v01.Scenario)
2024-03-18T14:18:59,396  INFO Injector:89   --> scope: Scopes.NO_SCOPE
2024-03-18T14:18:59,396  INFO Injector:94   ==full==> ProviderInstanceBinding{key=Key[type=org.matsim.lanes.Lanes, annotation=[none]], source=org.matsim.lanes.Lanes org.matsim.core.scenario.ScenarioByInstanceModule.provideLanes(org.matsim.api.core.v01.Scenario), scope=Scopes.NO_SCOPE, provider=@Provides org.matsim.core.scenario.ScenarioByInstanceModule.provideLanes(ScenarioByInstanceModule.java:87)}
2024-03-18T14:18:59,396  INFO Injector:96 
2024-03-18T14:18:59,396  INFO Injector:85 org.matsim.api.core.v01.network.Network 
2024-03-18T14:18:59,397  INFO Injector:86   --> provider: @Provides org.matsim.core.scenario.ScenarioByInstanceModule.provideNetwork(ScenarioByInstanceModule.java:60)
2024-03-18T14:18:59,397  INFO Injector:87   --> source: org.matsim.api.core.v01.network.Network org.matsim.core.scenario.ScenarioByInstanceModule.provideNetwork(org.matsim.api.core.v01.Scenario)
2024-03-18T14:18:59,397  INFO Injector:89   --> scope: Scopes.NO_SCOPE
2024-03-18T14:18:59,397  INFO Injector:94   ==full==> ProviderInstanceBinding{key=Key[type=org.matsim.api.core.v01.network.Network, annotation=[none]], source=org.matsim.api.core.v01.network.Network org.matsim.core.scenario.ScenarioByInstanceModule.provideNetwork(org.matsim.api.core.v01.Scenario), scope=Scopes.NO_SCOPE, provider=@Provides org.matsim.core.scenario.ScenarioByInstanceModule.provideNetwork(ScenarioByInstanceModule.java:60)}
2024-03-18T14:18:59,397  INFO Injector:96 
2024-03-18T14:18:59,397  INFO Injector:85 org.matsim.api.core.v01.population.Population 
2024-03-18T14:18:59,397  INFO Injector:86   --> provider: @Provides org.matsim.core.scenario.ScenarioByInstanceModule.providePopulation(ScenarioByInstanceModule.java:64)
2024-03-18T14:18:59,397  INFO Injector:87   --> source: org.matsim.api.core.v01.population.Population org.matsim.core.scenario.ScenarioByInstanceModule.providePopulation(org.matsim.api.core.v01.Scenario)
2024-03-18T14:18:59,397  INFO Injector:89   --> scope: Scopes.NO_SCOPE
2024-03-18T14:18:59,397  INFO Injector:94   ==full==> ProviderInstanceBinding{key=Key[type=org.matsim.api.core.v01.population.Population, annotation=[none]], source=org.matsim.api.core.v01.population.Population org.matsim.core.scenario.ScenarioByInstanceModule.providePopulation(org.matsim.api.core.v01.Scenario), scope=Scopes.NO_SCOPE, provider=@Provides org.matsim.core.scenario.ScenarioByInstanceModule.providePopulation(ScenarioByInstanceModule.java:64)}
2024-03-18T14:18:59,397  INFO Injector:96 
2024-03-18T14:18:59,397  INFO Injector:85 org.matsim.households.Households 
2024-03-18T14:18:59,397  INFO Injector:86   --> provider: @Provides org.matsim.core.scenario.ScenarioByInstanceModule.provideHouseholds(ScenarioByInstanceModule.java:77)
2024-03-18T14:18:59,397  INFO Injector:87   --> source: org.matsim.households.Households org.matsim.core.scenario.ScenarioByInstanceModule.provideHouseholds(org.matsim.api.core.v01.Scenario)
2024-03-18T14:18:59,397  INFO Injector:89   --> scope: Scopes.NO_SCOPE
2024-03-18T14:18:59,398  INFO Injector:94   ==full==> ProviderInstanceBinding{key=Key[type=org.matsim.households.Households, annotation=[none]], source=org.matsim.households.Households org.matsim.core.scenario.ScenarioByInstanceModule.provideHouseholds(org.matsim.api.core.v01.Scenario), scope=Scopes.NO_SCOPE, provider=@Provides org.matsim.core.scenario.ScenarioByInstanceModule.provideHouseholds(ScenarioByInstanceModule.java:77)}
2024-03-18T14:18:59,398  INFO Injector:96 
2024-03-18T14:18:59,398  INFO Injector:85 org.matsim.core.router.MainModeIdentifier 
2024-03-18T14:18:59,398  INFO Injector:86   --> provider: FactoryProxy{key=Key[type=org.matsim.core.router.MainModeIdentifier, annotation=[none]], provider=com.google.inject.internal.ConstructorBindingImpl$Factory@3fe512d2}
2024-03-18T14:18:59,398  INFO Injector:87   --> source: org.eqasim.core.components.EqasimComponentsModule.install(EqasimComponentsModule.java:9)
2024-03-18T14:18:59,398  INFO Injector:89   --> scope: Scopes.NO_SCOPE
2024-03-18T14:18:59,398  INFO Injector:92   --> target: Key[type=org.eqasim.core.components.EqasimMainModeIdentifier, annotation=[none]]
2024-03-18T14:18:59,398  INFO Injector:94   ==full==> LinkedKeyBinding{key=Key[type=org.matsim.core.router.MainModeIdentifier, annotation=[none]], source=org.eqasim.core.components.EqasimComponentsModule.install(EqasimComponentsModule.java:9), scope=Scopes.NO_SCOPE, target=Key[type=org.eqasim.core.components.EqasimMainModeIdentifier, annotation=[none]]}
2024-03-18T14:18:59,398  INFO Injector:96 
2024-03-18T14:18:59,399  INFO Injector:85 org.matsim.core.replanning.PlanStrategy @com.google.inject.name.Named(value="DiscreteModeChoice")
2024-03-18T14:18:59,399  INFO Injector:86   --> provider: Key[type=org.matsim.contribs.discrete_mode_choice.replanning.DiscreteModeChoiceStrategyProvider, annotation=[none]]
2024-03-18T14:18:59,399  INFO Injector:87   --> source: org.matsim.contribs.discrete_mode_choice.modules.DiscreteModeChoiceModule.install(DiscreteModeChoiceModule.java:26)
2024-03-18T14:18:59,399  INFO Injector:89   --> scope: Scopes.NO_SCOPE
2024-03-18T14:18:59,399  INFO Injector:94   ==full==> ProviderKeyBinding{key=Key[type=org.matsim.core.replanning.PlanStrategy, annotation=@com.google.inject.name.Named(value="DiscreteModeChoice")], source=org.matsim.contribs.discrete_mode_choice.modules.DiscreteModeChoiceModule.install(DiscreteModeChoiceModule.java:26), scope=Scopes.NO_SCOPE, provider=Key[type=org.matsim.contribs.discrete_mode_choice.replanning.DiscreteModeChoiceStrategyProvider, annotation=[none]]}
2024-03-18T14:18:59,399  INFO Injector:96 
2024-03-18T14:18:59,399  INFO Injector:85 org.matsim.core.replanning.selectors.PlanSelector<org.matsim.api.core.v01.population.Plan, org.matsim.api.core.v01.population.Person> 
2024-03-18T14:18:59,399  INFO Injector:86   --> provider: FactoryProxy{key=Key[type=org.matsim.core.replanning.selectors.PlanSelector<org.matsim.api.core.v01.population.Plan, org.matsim.api.core.v01.population.Person>, annotation=[none]], provider=com.google.inject.internal.ConstructorBindingImpl$Factory@3fde8f7c}
2024-03-18T14:18:59,399  INFO Injector:87   --> source: org.matsim.contribs.discrete_mode_choice.modules.DiscreteModeChoiceModule.install(DiscreteModeChoiceModule.java:29)
2024-03-18T14:18:59,399  INFO Injector:89   --> scope: Scopes.NO_SCOPE
2024-03-18T14:18:59,399  INFO Injector:92   --> target: Key[type=org.matsim.contribs.discrete_mode_choice.replanning.NonSelectedPlanSelector, annotation=[none]]
2024-03-18T14:18:59,399  INFO Injector:94   ==full==> LinkedKeyBinding{key=Key[type=org.matsim.core.replanning.selectors.PlanSelector<org.matsim.api.core.v01.population.Plan, org.matsim.api.core.v01.population.Person>, annotation=[none]], source=org.matsim.contribs.discrete_mode_choice.modules.DiscreteModeChoiceModule.install(DiscreteModeChoiceModule.java:29), scope=Scopes.NO_SCOPE, target=Key[type=org.matsim.contribs.discrete_mode_choice.replanning.NonSelectedPlanSelector, annotation=[none]]}
2024-03-18T14:18:59,399  INFO Injector:96 
2024-03-18T14:18:59,400  INFO Injector:85 org.matsim.core.controler.listener.ControlerListener @com.google.inject.internal.Element(setName=,uniqueId=143, type=MULTIBINDER, keyType=)
2024-03-18T14:18:59,400  INFO Injector:86   --> provider: FactoryProxy{key=Key[type=org.matsim.core.controler.listener.ControlerListener, annotation=@com.google.inject.internal.Element(setName=,uniqueId=143, type=MULTIBINDER, keyType=)], provider=com.google.inject.internal.ConstructorBindingImpl$Factory@11d86b9d}
2024-03-18T14:18:59,400  INFO Injector:87   --> source: org.matsim.contribs.discrete_mode_choice.modules.DiscreteModeChoiceModule.install(DiscreteModeChoiceModule.java:33)
2024-03-18T14:18:59,400  INFO Injector:89   --> scope: Scopes.NO_SCOPE
2024-03-18T14:18:59,400  INFO Injector:92   --> target: Key[type=org.matsim.contribs.discrete_mode_choice.modules.utils.ModeChoiceInTheLoopChecker, annotation=[none]]
2024-03-18T14:18:59,400  INFO Injector:94   ==full==> LinkedKeyBinding{key=Key[type=org.matsim.core.controler.listener.ControlerListener, annotation=@com.google.inject.internal.Element(setName=,uniqueId=143, type=MULTIBINDER, keyType=)], source=org.matsim.contribs.discrete_mode_choice.modules.DiscreteModeChoiceModule.install(DiscreteModeChoiceModule.java:33), scope=Scopes.NO_SCOPE, target=Key[type=org.matsim.contribs.discrete_mode_choice.modules.utils.ModeChoiceInTheLoopChecker, annotation=[none]]}
2024-03-18T14:18:59,400  INFO Injector:96 
2024-03-18T14:18:59,400  INFO Injector:85 org.matsim.contribs.discrete_mode_choice.model.mode_availability.ModeAvailability @com.google.inject.internal.Element(setName=,uniqueId=144, type=MAPBINDER, keyType=java.lang.String)
2024-03-18T14:18:59,401  INFO Injector:86   --> provider: FactoryProxy{key=Key[type=org.matsim.contribs.discrete_mode_choice.model.mode_availability.ModeAvailability, annotation=@com.google.inject.internal.Element(setName=,uniqueId=144, type=MAPBINDER, keyType=java.lang.String)], provider=@Provides org.matsim.contribs.discrete_mode_choice.modules.ModeAvailabilityModule.provideDefaultModeAvailability(ModeAvailabilityModule.java:36)}
2024-03-18T14:18:59,401  INFO Injector:87   --> source: org.matsim.contribs.discrete_mode_choice.modules.AbstractDiscreteModeChoiceExtension.bindModeAvailability(AbstractDiscreteModeChoiceExtension.java:90)
2024-03-18T14:18:59,401  INFO Injector:89   --> scope: Scopes.NO_SCOPE
2024-03-18T14:18:59,401  INFO Injector:92   --> target: Key[type=org.matsim.contribs.discrete_mode_choice.model.mode_availability.DefaultModeAvailability, annotation=[none]]
2024-03-18T14:18:59,401  INFO Injector:94   ==full==> LinkedKeyBinding{key=Key[type=org.matsim.contribs.discrete_mode_choice.model.mode_availability.ModeAvailability, annotation=@com.google.inject.internal.Element(setName=,uniqueId=144, type=MAPBINDER, keyType=java.lang.String)], source=org.matsim.contribs.discrete_mode_choice.modules.AbstractDiscreteModeChoiceExtension.bindModeAvailability(AbstractDiscreteModeChoiceExtension.java:90), scope=Scopes.NO_SCOPE, target=Key[type=org.matsim.contribs.discrete_mode_choice.model.mode_availability.DefaultModeAvailability, annotation=[none]]}
2024-03-18T14:18:59,401  INFO Injector:96 
2024-03-18T14:18:59,401  INFO Injector:85 org.matsim.contribs.discrete_mode_choice.model.mode_availability.ModeAvailability @com.google.inject.internal.Element(setName=,uniqueId=146, type=MAPBINDER, keyType=java.lang.String)
2024-03-18T14:18:59,401  INFO Injector:86   --> provider: FactoryProxy{key=Key[type=org.matsim.contribs.discrete_mode_choice.model.mode_availability.ModeAvailability, annotation=@com.google.inject.internal.Element(setName=,uniqueId=146, type=MAPBINDER, keyType=java.lang.String)], provider=@Provides org.matsim.contribs.discrete_mode_choice.modules.ModeAvailabilityModule.provideCarModeAvailability(ModeAvailabilityModule.java:42)}
2024-03-18T14:18:59,401  INFO Injector:87   --> source: org.matsim.contribs.discrete_mode_choice.modules.AbstractDiscreteModeChoiceExtension.bindModeAvailability(AbstractDiscreteModeChoiceExtension.java:90)
2024-03-18T14:18:59,402  INFO Injector:89   --> scope: Scopes.NO_SCOPE
2024-03-18T14:18:59,402  INFO Injector:92   --> target: Key[type=org.matsim.contribs.discrete_mode_choice.model.mode_availability.CarModeAvailability, annotation=[none]]
2024-03-18T14:18:59,402  INFO Injector:94   ==full==> LinkedKeyBinding{key=Key[type=org.matsim.contribs.discrete_mode_choice.model.mode_availability.ModeAvailability, annotation=@com.google.inject.internal.Element(setName=,uniqueId=146, type=MAPBINDER, keyType=java.lang.String)], source=org.matsim.contribs.discrete_mode_choice.modules.AbstractDiscreteModeChoiceExtension.bindModeAvailability(AbstractDiscreteModeChoiceExtension.java:90), scope=Scopes.NO_SCOPE, target=Key[type=org.matsim.contribs.discrete_mode_choice.model.mode_availability.CarModeAvailability, annotation=[none]]}
2024-03-18T14:18:59,402  INFO Injector:96 
2024-03-18T14:18:59,402  INFO Injector:85 org.matsim.contribs.discrete_mode_choice.model.mode_availability.DefaultModeAvailability 
2024-03-18T14:18:59,402  INFO Injector:86   --> provider: @Provides org.matsim.contribs.discrete_mode_choice.modules.ModeAvailabilityModule.provideDefaultModeAvailability(ModeAvailabilityModule.java:36)
2024-03-18T14:18:59,402  INFO Injector:87   --> source: public org.matsim.contribs.discrete_mode_choice.model.mode_availability.DefaultModeAvailability org.matsim.contribs.discrete_mode_choice.modules.ModeAvailabilityModule.provideDefaultModeAvailability(org.matsim.contribs.discrete_mode_choice.modules.config.DiscreteModeChoiceConfigGroup)
2024-03-18T14:18:59,402  INFO Injector:89   --> scope: Scopes.NO_SCOPE
2024-03-18T14:18:59,402  INFO Injector:94   ==full==> ProviderInstanceBinding{key=Key[type=org.matsim.contribs.discrete_mode_choice.model.mode_availability.DefaultModeAvailability, annotation=[none]], source=public org.matsim.contribs.discrete_mode_choice.model.mode_availability.DefaultModeAvailability org.matsim.contribs.discrete_mode_choice.modules.ModeAvailabilityModule.provideDefaultModeAvailability(org.matsim.contribs.discrete_mode_choice.modules.config.DiscreteModeChoiceConfigGroup), scope=Scopes.NO_SCOPE, provider=@Provides org.matsim.contribs.discrete_mode_choice.modules.ModeAvailabilityModule.provideDefaultModeAvailability(ModeAvailabilityModule.java:36)}
2024-03-18T14:18:59,402  INFO Injector:96 
2024-03-18T14:18:59,402  INFO Injector:85 org.matsim.contribs.discrete_mode_choice.model.mode_availability.CarModeAvailability 
2024-03-18T14:18:59,402  INFO Injector:86   --> provider: @Provides org.matsim.contribs.discrete_mode_choice.modules.ModeAvailabilityModule.provideCarModeAvailability(ModeAvailabilityModule.java:42)
2024-03-18T14:18:59,402  INFO Injector:87   --> source: public org.matsim.contribs.discrete_mode_choice.model.mode_availability.CarModeAvailability org.matsim.contribs.discrete_mode_choice.modules.ModeAvailabilityModule.provideCarModeAvailability(org.matsim.contribs.discrete_mode_choice.modules.config.DiscreteModeChoiceConfigGroup)
2024-03-18T14:18:59,402  INFO Injector:89   --> scope: Scopes.NO_SCOPE
2024-03-18T14:18:59,402  INFO Injector:94   ==full==> ProviderInstanceBinding{key=Key[type=org.matsim.contribs.discrete_mode_choice.model.mode_availability.CarModeAvailability, annotation=[none]], source=public org.matsim.contribs.discrete_mode_choice.model.mode_availability.CarModeAvailability org.matsim.contribs.discrete_mode_choice.modules.ModeAvailabilityModule.provideCarModeAvailability(org.matsim.contribs.discrete_mode_choice.modules.config.DiscreteModeChoiceConfigGroup), scope=Scopes.NO_SCOPE, provider=@Provides org.matsim.contribs.discrete_mode_choice.modules.ModeAvailabilityModule.provideCarModeAvailability(ModeAvailabilityModule.java:42)}
2024-03-18T14:18:59,403  INFO Injector:96 
2024-03-18T14:18:59,403  INFO Injector:85 org.matsim.contribs.discrete_mode_choice.model.mode_availability.ModeAvailability 
2024-03-18T14:18:59,403  INFO Injector:86   --> provider: @Provides org.matsim.contribs.discrete_mode_choice.modules.ModeAvailabilityModule.provideModeAvailability(ModeAvailabilityModule.java:49)
2024-03-18T14:18:59,403  INFO Injector:87   --> source: public org.matsim.contribs.discrete_mode_choice.model.mode_availability.ModeAvailability org.matsim.contribs.discrete_mode_choice.modules.ModeAvailabilityModule.provideModeAvailability(org.matsim.contribs.discrete_mode_choice.modules.config.DiscreteModeChoiceConfigGroup,java.util.Map)
2024-03-18T14:18:59,403  INFO Injector:89   --> scope: Scopes.NO_SCOPE
2024-03-18T14:18:59,403  INFO Injector:94   ==full==> ProviderInstanceBinding{key=Key[type=org.matsim.contribs.discrete_mode_choice.model.mode_availability.ModeAvailability, annotation=[none]], source=public org.matsim.contribs.discrete_mode_choice.model.mode_availability.ModeAvailability org.matsim.contribs.discrete_mode_choice.modules.ModeAvailabilityModule.provideModeAvailability(org.matsim.contribs.discrete_mode_choice.modules.config.DiscreteModeChoiceConfigGroup,java.util.Map), scope=Scopes.NO_SCOPE, provider=@Provides org.matsim.contribs.discrete_mode_choice.modules.ModeAvailabilityModule.provideModeAvailability(ModeAvailabilityModule.java:49)}
2024-03-18T14:18:59,403  INFO Injector:96 
2024-03-18T14:18:59,403  INFO Injector:85 org.matsim.contribs.discrete_mode_choice.model.trip_based.TripEstimator @com.google.inject.internal.Element(setName=,uniqueId=148, type=MAPBINDER, keyType=java.lang.String)
2024-03-18T14:18:59,404  INFO Injector:86   --> provider: FactoryProxy{key=Key[type=org.matsim.contribs.discrete_mode_choice.model.trip_based.TripEstimator, annotation=@com.google.inject.internal.Element(setName=,uniqueId=148, type=MAPBINDER, keyType=java.lang.String)], provider=@Provides org.matsim.contribs.discrete_mode_choice.modules.EstimatorModule.provideMATSimTripScoringEstimator(EstimatorModule.java:112)}
2024-03-18T14:18:59,404  INFO Injector:87   --> source: org.matsim.contribs.discrete_mode_choice.modules.AbstractDiscreteModeChoiceExtension.bindTripEstimator(AbstractDiscreteModeChoiceExtension.java:66)
2024-03-18T14:18:59,404  INFO Injector:89   --> scope: Scopes.NO_SCOPE
2024-03-18T14:18:59,404  INFO Injector:92   --> target: Key[type=org.matsim.contribs.discrete_mode_choice.components.estimators.MATSimTripScoringEstimator, annotation=[none]]
2024-03-18T14:18:59,404  INFO Injector:94   ==full==> LinkedKeyBinding{key=Key[type=org.matsim.contribs.discrete_mode_choice.model.trip_based.TripEstimator, annotation=@com.google.inject.internal.Element(setName=,uniqueId=148, type=MAPBINDER, keyType=java.lang.String)], source=org.matsim.contribs.discrete_mode_choice.modules.AbstractDiscreteModeChoiceExtension.bindTripEstimator(AbstractDiscreteModeChoiceExtension.java:66), scope=Scopes.NO_SCOPE, target=Key[type=org.matsim.contribs.discrete_mode_choice.components.estimators.MATSimTripScoringEstimator, annotation=[none]]}
2024-03-18T14:18:59,404  INFO Injector:96 
2024-03-18T14:18:59,404  INFO Injector:85 org.matsim.contribs.discrete_mode_choice.model.trip_based.TripEstimator @com.google.inject.internal.Element(setName=,uniqueId=150, type=MAPBINDER, keyType=java.lang.String)
2024-03-18T14:18:59,404  INFO Injector:86   --> provider: FactoryProxy{key=Key[type=org.matsim.contribs.discrete_mode_choice.model.trip_based.TripEstimator, annotation=@com.google.inject.internal.Element(setName=,uniqueId=150, type=MAPBINDER, keyType=java.lang.String)], provider=@Provides org.matsim.contribs.discrete_mode_choice.modules.EstimatorModule.provideNullTripEstimator(EstimatorModule.java:92)[Scopes.SINGLETON]}
2024-03-18T14:18:59,405  INFO Injector:87   --> source: org.matsim.contribs.discrete_mode_choice.modules.AbstractDiscreteModeChoiceExtension.bindTripEstimator(AbstractDiscreteModeChoiceExtension.java:66)
2024-03-18T14:18:59,405  INFO Injector:89   --> scope: Scopes.NO_SCOPE
2024-03-18T14:18:59,405  INFO Injector:92   --> target: Key[type=org.matsim.contribs.discrete_mode_choice.components.estimators.UniformTripEstimator, annotation=[none]]
2024-03-18T14:18:59,405  INFO Injector:94   ==full==> LinkedKeyBinding{key=Key[type=org.matsim.contribs.discrete_mode_choice.model.trip_based.TripEstimator, annotation=@com.google.inject.internal.Element(setName=,uniqueId=150, type=MAPBINDER, keyType=java.lang.String)], source=org.matsim.contribs.discrete_mode_choice.modules.AbstractDiscreteModeChoiceExtension.bindTripEstimator(AbstractDiscreteModeChoiceExtension.java:66), scope=Scopes.NO_SCOPE, target=Key[type=org.matsim.contribs.discrete_mode_choice.components.estimators.UniformTripEstimator, annotation=[none]]}
2024-03-18T14:18:59,405  INFO Injector:96 
2024-03-18T14:18:59,405  INFO Injector:85 org.matsim.contribs.discrete_mode_choice.model.tour_based.TourEstimator @com.google.inject.internal.Element(setName=,uniqueId=152, type=MAPBINDER, keyType=java.lang.String)
2024-03-18T14:18:59,405  INFO Injector:86   --> provider: FactoryProxy{key=Key[type=org.matsim.contribs.discrete_mode_choice.model.tour_based.TourEstimator, annotation=@com.google.inject.internal.Element(setName=,uniqueId=152, type=MAPBINDER, keyType=java.lang.String)], provider=@Provides org.matsim.contribs.discrete_mode_choice.modules.EstimatorModule.provideMATSimDayScoringEstimator(EstimatorModule.java:121)}
2024-03-18T14:18:59,405  INFO Injector:87   --> source: org.matsim.contribs.discrete_mode_choice.modules.AbstractDiscreteModeChoiceExtension.bindTourEstimator(AbstractDiscreteModeChoiceExtension.java:62)
2024-03-18T14:18:59,405  INFO Injector:89   --> scope: Scopes.NO_SCOPE
2024-03-18T14:18:59,405  INFO Injector:92   --> target: Key[type=org.matsim.contribs.discrete_mode_choice.components.estimators.MATSimDayScoringEstimator, annotation=[none]]
2024-03-18T14:18:59,405  INFO Injector:94   ==full==> LinkedKeyBinding{key=Key[type=org.matsim.contribs.discrete_mode_choice.model.tour_based.TourEstimator, annotation=@com.google.inject.internal.Element(setName=,uniqueId=152, type=MAPBINDER, keyType=java.lang.String)], source=org.matsim.contribs.discrete_mode_choice.modules.AbstractDiscreteModeChoiceExtension.bindTourEstimator(AbstractDiscreteModeChoiceExtension.java:62), scope=Scopes.NO_SCOPE, target=Key[type=org.matsim.contribs.discrete_mode_choice.components.estimators.MATSimDayScoringEstimator, annotation=[none]]}
2024-03-18T14:18:59,405  INFO Injector:96 
2024-03-18T14:18:59,405  INFO Injector:85 org.matsim.contribs.discrete_mode_choice.model.tour_based.TourEstimator @com.google.inject.internal.Element(setName=,uniqueId=154, type=MAPBINDER, keyType=java.lang.String)
2024-03-18T14:18:59,405  INFO Injector:86   --> provider: FactoryProxy{key=Key[type=org.matsim.contribs.discrete_mode_choice.model.tour_based.TourEstimator, annotation=@com.google.inject.internal.Element(setName=,uniqueId=154, type=MAPBINDER, keyType=java.lang.String)], provider=@Provides org.matsim.contribs.discrete_mode_choice.modules.EstimatorModule.provideCumulativeTourEstimator(EstimatorModule.java:128)}
2024-03-18T14:18:59,405  INFO Injector:87   --> source: org.matsim.contribs.discrete_mode_choice.modules.AbstractDiscreteModeChoiceExtension.bindTourEstimator(AbstractDiscreteModeChoiceExtension.java:62)
2024-03-18T14:18:59,405  INFO Injector:89   --> scope: Scopes.NO_SCOPE
2024-03-18T14:18:59,406  INFO Injector:92   --> target: Key[type=org.matsim.contribs.discrete_mode_choice.components.estimators.CumulativeTourEstimator, annotation=[none]]
2024-03-18T14:18:59,406  INFO Injector:94   ==full==> LinkedKeyBinding{key=Key[type=org.matsim.contribs.discrete_mode_choice.model.tour_based.TourEstimator, annotation=@com.google.inject.internal.Element(setName=,uniqueId=154, type=MAPBINDER, keyType=java.lang.String)], source=org.matsim.contribs.discrete_mode_choice.modules.AbstractDiscreteModeChoiceExtension.bindTourEstimator(AbstractDiscreteModeChoiceExtension.java:62), scope=Scopes.NO_SCOPE, target=Key[type=org.matsim.contribs.discrete_mode_choice.components.estimators.CumulativeTourEstimator, annotation=[none]]}
2024-03-18T14:18:59,406  INFO Injector:96 
2024-03-18T14:18:59,406  INFO Injector:85 org.matsim.contribs.discrete_mode_choice.model.tour_based.TourEstimator @com.google.inject.internal.Element(setName=,uniqueId=156, type=MAPBINDER, keyType=java.lang.String)
2024-03-18T14:18:59,406  INFO Injector:86   --> provider: FactoryProxy{key=Key[type=org.matsim.contribs.discrete_mode_choice.model.tour_based.TourEstimator, annotation=@com.google.inject.internal.Element(setName=,uniqueId=156, type=MAPBINDER, keyType=java.lang.String)], provider=@Provides org.matsim.contribs.discrete_mode_choice.modules.EstimatorModule.proideNullTourEstimator(EstimatorModule.java:98)[Scopes.SINGLETON]}
2024-03-18T14:18:59,406  INFO Injector:87   --> source: org.matsim.contribs.discrete_mode_choice.modules.AbstractDiscreteModeChoiceExtension.bindTourEstimator(AbstractDiscreteModeChoiceExtension.java:62)
2024-03-18T14:18:59,406  INFO Injector:89   --> scope: Scopes.NO_SCOPE
2024-03-18T14:18:59,406  INFO Injector:92   --> target: Key[type=org.matsim.contribs.discrete_mode_choice.components.estimators.UniformTourEstimator, annotation=[none]]
2024-03-18T14:18:59,406  INFO Injector:94   ==full==> LinkedKeyBinding{key=Key[type=org.matsim.contribs.discrete_mode_choice.model.tour_based.TourEstimator, annotation=@com.google.inject.internal.Element(setName=,uniqueId=156, type=MAPBINDER, keyType=java.lang.String)], source=org.matsim.contribs.discrete_mode_choice.modules.AbstractDiscreteModeChoiceExtension.bindTourEstimator(AbstractDiscreteModeChoiceExtension.java:62), scope=Scopes.NO_SCOPE, target=Key[type=org.matsim.contribs.discrete_mode_choice.components.estimators.UniformTourEstimator, annotation=[none]]}
2024-03-18T14:18:59,406  INFO Injector:96 
2024-03-18T14:18:59,406  INFO Injector:85 org.matsim.contribs.discrete_mode_choice.components.utils.PTWaitingTimeEstimator 
2024-03-18T14:18:59,407  INFO Injector:86   --> provider: FactoryProxy{key=Key[type=org.matsim.contribs.discrete_mode_choice.components.utils.PTWaitingTimeEstimator, annotation=[none]], provider=@Provides org.matsim.contribs.discrete_mode_choice.modules.utils.ScheduleWaitingTimeEstimatorModule.provideScheduleWaitingTimeEstimator(ScheduleWaitingTimeEstimatorModule.java:28)[Scopes.SINGLETON]}
2024-03-18T14:18:59,407  INFO Injector:87   --> source: org.matsim.contribs.discrete_mode_choice.modules.utils.ScheduleWaitingTimeEstimatorModule.configure(ScheduleWaitingTimeEstimatorModule.java:22)
2024-03-18T14:18:59,407  INFO Injector:89   --> scope: Scopes.NO_SCOPE
2024-03-18T14:18:59,407  INFO Injector:92   --> target: Key[type=org.matsim.contribs.discrete_mode_choice.components.utils.ScheduleWaitingTimeEstimator, annotation=[none]]
2024-03-18T14:18:59,407  INFO Injector:94   ==full==> LinkedKeyBinding{key=Key[type=org.matsim.contribs.discrete_mode_choice.components.utils.PTWaitingTimeEstimator, annotation=[none]], source=org.matsim.contribs.discrete_mode_choice.modules.utils.ScheduleWaitingTimeEstimatorModule.configure(ScheduleWaitingTimeEstimatorModule.java:22), scope=Scopes.NO_SCOPE, target=Key[type=org.matsim.contribs.discrete_mode_choice.components.utils.ScheduleWaitingTimeEstimator, annotation=[none]]}
2024-03-18T14:18:59,407  INFO Injector:96 
2024-03-18T14:18:59,407  INFO Injector:85 org.matsim.contribs.discrete_mode_choice.components.utils.ScheduleWaitingTimeEstimator 
2024-03-18T14:18:59,407  INFO Injector:86   --> provider: @Provides org.matsim.contribs.discrete_mode_choice.modules.utils.ScheduleWaitingTimeEstimatorModule.provideScheduleWaitingTimeEstimator(ScheduleWaitingTimeEstimatorModule.java:28)[Scopes.SINGLETON]
2024-03-18T14:18:59,407  INFO Injector:87   --> source: public org.matsim.contribs.discrete_mode_choice.components.utils.ScheduleWaitingTimeEstimator org.matsim.contribs.discrete_mode_choice.modules.utils.ScheduleWaitingTimeEstimatorModule.provideScheduleWaitingTimeEstimator(org.matsim.pt.transitSchedule.api.TransitSchedule)
2024-03-18T14:18:59,407  INFO Injector:89   --> scope: Scopes.SINGLETON
2024-03-18T14:18:59,407  INFO Injector:94   ==full==> ProviderInstanceBinding{key=Key[type=org.matsim.contribs.discrete_mode_choice.components.utils.ScheduleWaitingTimeEstimator, annotation=[none]], source=public org.matsim.contribs.discrete_mode_choice.components.utils.ScheduleWaitingTimeEstimator org.matsim.contribs.discrete_mode_choice.modules.utils.ScheduleWaitingTimeEstimatorModule.provideScheduleWaitingTimeEstimator(org.matsim.pt.transitSchedule.api.TransitSchedule), scope=Scopes.SINGLETON, provider=@Provides org.matsim.contribs.discrete_mode_choice.modules.utils.ScheduleWaitingTimeEstimatorModule.provideScheduleWaitingTimeEstimator(ScheduleWaitingTimeEstimatorModule.java:28)}
2024-03-18T14:18:59,407  INFO Injector:96 
2024-03-18T14:18:59,407  INFO Injector:85 org.matsim.contribs.discrete_mode_choice.model.tour_based.TourEstimator 
2024-03-18T14:18:59,408  INFO Injector:86   --> provider: @Provides org.matsim.contribs.discrete_mode_choice.modules.EstimatorModule.provideTourEstimator(EstimatorModule.java:66)
2024-03-18T14:18:59,408  INFO Injector:87   --> source: public org.matsim.contribs.discrete_mode_choice.model.tour_based.TourEstimator org.matsim.contribs.discrete_mode_choice.modules.EstimatorModule.provideTourEstimator(org.matsim.contribs.discrete_mode_choice.modules.config.DiscreteModeChoiceConfigGroup,java.util.Map)
2024-03-18T14:18:59,408  INFO Injector:89   --> scope: Scopes.NO_SCOPE
2024-03-18T14:18:59,408  INFO Injector:94   ==full==> ProviderInstanceBinding{key=Key[type=org.matsim.contribs.discrete_mode_choice.model.tour_based.TourEstimator, annotation=[none]], source=public org.matsim.contribs.discrete_mode_choice.model.tour_based.TourEstimator org.matsim.contribs.discrete_mode_choice.modules.EstimatorModule.provideTourEstimator(org.matsim.contribs.discrete_mode_choice.modules.config.DiscreteModeChoiceConfigGroup,java.util.Map), scope=Scopes.NO_SCOPE, provider=@Provides org.matsim.contribs.discrete_mode_choice.modules.EstimatorModule.provideTourEstimator(EstimatorModule.java:66)}
2024-03-18T14:18:59,408  INFO Injector:96 
2024-03-18T14:18:59,408  INFO Injector:85 org.matsim.contribs.discrete_mode_choice.model.trip_based.TripEstimator 
2024-03-18T14:18:59,408  INFO Injector:86   --> provider: @Provides org.matsim.contribs.discrete_mode_choice.modules.EstimatorModule.provideTripEstimator(EstimatorModule.java:79)
2024-03-18T14:18:59,408  INFO Injector:87   --> source: public org.matsim.contribs.discrete_mode_choice.model.trip_based.TripEstimator org.matsim.contribs.discrete_mode_choice.modules.EstimatorModule.provideTripEstimator(org.matsim.contribs.discrete_mode_choice.modules.config.DiscreteModeChoiceConfigGroup,java.util.Map)
2024-03-18T14:18:59,408  INFO Injector:89   --> scope: Scopes.NO_SCOPE
2024-03-18T14:18:59,408  INFO Injector:94   ==full==> ProviderInstanceBinding{key=Key[type=org.matsim.contribs.discrete_mode_choice.model.trip_based.TripEstimator, annotation=[none]], source=public org.matsim.contribs.discrete_mode_choice.model.trip_based.TripEstimator org.matsim.contribs.discrete_mode_choice.modules.EstimatorModule.provideTripEstimator(org.matsim.contribs.discrete_mode_choice.modules.config.DiscreteModeChoiceConfigGroup,java.util.Map), scope=Scopes.NO_SCOPE, provider=@Provides org.matsim.contribs.discrete_mode_choice.modules.EstimatorModule.provideTripEstimator(EstimatorModule.java:79)}
2024-03-18T14:18:59,408  INFO Injector:96 
2024-03-18T14:18:59,408  INFO Injector:85 org.matsim.contribs.discrete_mode_choice.components.estimators.UniformTripEstimator 
2024-03-18T14:18:59,408  INFO Injector:86   --> provider: @Provides org.matsim.contribs.discrete_mode_choice.modules.EstimatorModule.provideNullTripEstimator(EstimatorModule.java:92)[Scopes.SINGLETON]
2024-03-18T14:18:59,408  INFO Injector:87   --> source: public org.matsim.contribs.discrete_mode_choice.components.estimators.UniformTripEstimator org.matsim.contribs.discrete_mode_choice.modules.EstimatorModule.provideNullTripEstimator(org.matsim.contribs.discrete_mode_choice.replanning.time_interpreter.TimeInterpreter$Factory)
2024-03-18T14:18:59,409  INFO Injector:89   --> scope: Scopes.SINGLETON
2024-03-18T14:18:59,409  INFO Injector:94   ==full==> ProviderInstanceBinding{key=Key[type=org.matsim.contribs.discrete_mode_choice.components.estimators.UniformTripEstimator, annotation=[none]], source=public org.matsim.contribs.discrete_mode_choice.components.estimators.UniformTripEstimator org.matsim.contribs.discrete_mode_choice.modules.EstimatorModule.provideNullTripEstimator(org.matsim.contribs.discrete_mode_choice.replanning.time_interpreter.TimeInterpreter$Factory), scope=Scopes.SINGLETON, provider=@Provides org.matsim.contribs.discrete_mode_choice.modules.EstimatorModule.provideNullTripEstimator(EstimatorModule.java:92)}
2024-03-18T14:18:59,409  INFO Injector:96 
2024-03-18T14:18:59,409  INFO Injector:85 org.matsim.contribs.discrete_mode_choice.components.estimators.UniformTourEstimator 
2024-03-18T14:18:59,409  INFO Injector:86   --> provider: @Provides org.matsim.contribs.discrete_mode_choice.modules.EstimatorModule.proideNullTourEstimator(EstimatorModule.java:98)[Scopes.SINGLETON]
2024-03-18T14:18:59,409  INFO Injector:87   --> source: public org.matsim.contribs.discrete_mode_choice.components.estimators.UniformTourEstimator org.matsim.contribs.discrete_mode_choice.modules.EstimatorModule.proideNullTourEstimator(org.matsim.contribs.discrete_mode_choice.replanning.time_interpreter.TimeInterpreter$Factory)
2024-03-18T14:18:59,409  INFO Injector:89   --> scope: Scopes.SINGLETON
2024-03-18T14:18:59,409  INFO Injector:94   ==full==> ProviderInstanceBinding{key=Key[type=org.matsim.contribs.discrete_mode_choice.components.estimators.UniformTourEstimator, annotation=[none]], source=public org.matsim.contribs.discrete_mode_choice.components.estimators.UniformTourEstimator org.matsim.contribs.discrete_mode_choice.modules.EstimatorModule.proideNullTourEstimator(org.matsim.contribs.discrete_mode_choice.replanning.time_interpreter.TimeInterpreter$Factory), scope=Scopes.SINGLETON, provider=@Provides org.matsim.contribs.discrete_mode_choice.modules.EstimatorModule.proideNullTourEstimator(EstimatorModule.java:98)}
2024-03-18T14:18:59,409  INFO Injector:96 
2024-03-18T14:18:59,409  INFO Injector:85 org.matsim.contribs.discrete_mode_choice.components.utils.NullWaitingTimeEstimator 
2024-03-18T14:18:59,409  INFO Injector:86   --> provider: @Provides org.matsim.contribs.discrete_mode_choice.modules.EstimatorModule.provideNullWaitingTimeEstimator(EstimatorModule.java:104)[Scopes.SINGLETON]
2024-03-18T14:18:59,409  INFO Injector:87   --> source: public org.matsim.contribs.discrete_mode_choice.components.utils.NullWaitingTimeEstimator org.matsim.contribs.discrete_mode_choice.modules.EstimatorModule.provideNullWaitingTimeEstimator()
2024-03-18T14:18:59,409  INFO Injector:89   --> scope: Scopes.SINGLETON
2024-03-18T14:18:59,410  INFO Injector:94   ==full==> ProviderInstanceBinding{key=Key[type=org.matsim.contribs.discrete_mode_choice.components.utils.NullWaitingTimeEstimator, annotation=[none]], source=public org.matsim.contribs.discrete_mode_choice.components.utils.NullWaitingTimeEstimator org.matsim.contribs.discrete_mode_choice.modules.EstimatorModule.provideNullWaitingTimeEstimator(), scope=Scopes.SINGLETON, provider=@Provides org.matsim.contribs.discrete_mode_choice.modules.EstimatorModule.provideNullWaitingTimeEstimator(EstimatorModule.java:104)}
2024-03-18T14:18:59,410  INFO Injector:96 
2024-03-18T14:18:59,410  INFO Injector:85 org.matsim.contribs.discrete_mode_choice.components.estimators.MATSimTripScoringEstimator 
2024-03-18T14:18:59,410  INFO Injector:86   --> provider: @Provides org.matsim.contribs.discrete_mode_choice.modules.EstimatorModule.provideMATSimTripScoringEstimator(EstimatorModule.java:112)
2024-03-18T14:18:59,410  INFO Injector:87   --> source: public org.matsim.contribs.discrete_mode_choice.components.estimators.MATSimTripScoringEstimator org.matsim.contribs.discrete_mode_choice.modules.EstimatorModule.provideMATSimTripScoringEstimator(org.matsim.facilities.ActivityFacilities,org.matsim.core.router.TripRouter,org.matsim.contribs.discrete_mode_choice.components.utils.PTWaitingTimeEstimator,org.matsim.core.scoring.functions.ScoringParametersForPerson,org.matsim.contribs.discrete_mode_choice.modules.config.DiscreteModeChoiceConfigGroup,org.matsim.contribs.discrete_mode_choice.replanning.time_interpreter.TimeInterpreter$Factory)
2024-03-18T14:18:59,410  INFO Injector:89   --> scope: Scopes.NO_SCOPE
2024-03-18T14:18:59,410  INFO Injector:94   ==full==> ProviderInstanceBinding{key=Key[type=org.matsim.contribs.discrete_mode_choice.components.estimators.MATSimTripScoringEstimator, annotation=[none]], source=public org.matsim.contribs.discrete_mode_choice.components.estimators.MATSimTripScoringEstimator org.matsim.contribs.discrete_mode_choice.modules.EstimatorModule.provideMATSimTripScoringEstimator(org.matsim.facilities.ActivityFacilities,org.matsim.core.router.TripRouter,org.matsim.contribs.discrete_mode_choice.components.utils.PTWaitingTimeEstimator,org.matsim.core.scoring.functions.ScoringParametersForPerson,org.matsim.contribs.discrete_mode_choice.modules.config.DiscreteModeChoiceConfigGroup,org.matsim.contribs.discrete_mode_choice.replanning.time_interpreter.TimeInterpreter$Factory), scope=Scopes.NO_SCOPE, provider=@Provides org.matsim.contribs.discrete_mode_choice.modules.EstimatorModule.provideMATSimTripScoringEstimator(EstimatorModule.java:112)}
2024-03-18T14:18:59,410  INFO Injector:96 
2024-03-18T14:18:59,410  INFO Injector:85 org.matsim.contribs.discrete_mode_choice.components.estimators.MATSimDayScoringEstimator 
2024-03-18T14:18:59,410  INFO Injector:86   --> provider: @Provides org.matsim.contribs.discrete_mode_choice.modules.EstimatorModule.provideMATSimDayScoringEstimator(EstimatorModule.java:121)
2024-03-18T14:18:59,410  INFO Injector:87   --> source: public org.matsim.contribs.discrete_mode_choice.components.estimators.MATSimDayScoringEstimator org.matsim.contribs.discrete_mode_choice.modules.EstimatorModule.provideMATSimDayScoringEstimator(org.matsim.contribs.discrete_mode_choice.components.estimators.MATSimTripScoringEstimator,org.matsim.core.scoring.functions.ScoringParametersForPerson,org.matsim.contribs.discrete_mode_choice.modules.config.DiscreteModeChoiceConfigGroup,org.matsim.contribs.discrete_mode_choice.replanning.time_interpreter.TimeInterpreter$Factory)
2024-03-18T14:18:59,410  INFO Injector:89   --> scope: Scopes.NO_SCOPE
2024-03-18T14:18:59,410  INFO Injector:94   ==full==> ProviderInstanceBinding{key=Key[type=org.matsim.contribs.discrete_mode_choice.components.estimators.MATSimDayScoringEstimator, annotation=[none]], source=public org.matsim.contribs.discrete_mode_choice.components.estimators.MATSimDayScoringEstimator org.matsim.contribs.discrete_mode_choice.modules.EstimatorModule.provideMATSimDayScoringEstimator(org.matsim.contribs.discrete_mode_choice.components.estimators.MATSimTripScoringEstimator,org.matsim.core.scoring.functions.ScoringParametersForPerson,org.matsim.contribs.discrete_mode_choice.modules.config.DiscreteModeChoiceConfigGroup,org.matsim.contribs.discrete_mode_choice.replanning.time_interpreter.TimeInterpreter$Factory), scope=Scopes.NO_SCOPE, provider=@Provides org.matsim.contribs.discrete_mode_choice.modules.EstimatorModule.provideMATSimDayScoringEstimator(EstimatorModule.java:121)}
2024-03-18T14:18:59,410  INFO Injector:96 
2024-03-18T14:18:59,411  INFO Injector:85 org.matsim.contribs.discrete_mode_choice.components.estimators.CumulativeTourEstimator 
2024-03-18T14:18:59,411  INFO Injector:86   --> provider: @Provides org.matsim.contribs.discrete_mode_choice.modules.EstimatorModule.provideCumulativeTourEstimator(EstimatorModule.java:128)
2024-03-18T14:18:59,411  INFO Injector:87   --> source: public org.matsim.contribs.discrete_mode_choice.components.estimators.CumulativeTourEstimator org.matsim.contribs.discrete_mode_choice.modules.EstimatorModule.provideCumulativeTourEstimator(org.matsim.contribs.discrete_mode_choice.model.trip_based.TripEstimator,org.matsim.contribs.discrete_mode_choice.replanning.time_interpreter.TimeInterpreter$Factory)
2024-03-18T14:18:59,411  INFO Injector:89   --> scope: Scopes.NO_SCOPE
2024-03-18T14:18:59,411  INFO Injector:94   ==full==> ProviderInstanceBinding{key=Key[type=org.matsim.contribs.discrete_mode_choice.components.estimators.CumulativeTourEstimator, annotation=[none]], source=public org.matsim.contribs.discrete_mode_choice.components.estimators.CumulativeTourEstimator org.matsim.contribs.discrete_mode_choice.modules.EstimatorModule.provideCumulativeTourEstimator(org.matsim.contribs.discrete_mode_choice.model.trip_based.TripEstimator,org.matsim.contribs.discrete_mode_choice.replanning.time_interpreter.TimeInterpreter$Factory), scope=Scopes.NO_SCOPE, provider=@Provides org.matsim.contribs.discrete_mode_choice.modules.EstimatorModule.provideCumulativeTourEstimator(EstimatorModule.java:128)}
2024-03-18T14:18:59,411  INFO Injector:96 
2024-03-18T14:18:59,411  INFO Injector:85 org.matsim.contribs.discrete_mode_choice.components.tour_finder.TourFinder @com.google.inject.internal.Element(setName=,uniqueId=158, type=MAPBINDER, keyType=java.lang.String)
2024-03-18T14:18:59,412  INFO Injector:86   --> provider: FactoryProxy{key=Key[type=org.matsim.contribs.discrete_mode_choice.components.tour_finder.TourFinder, annotation=@com.google.inject.internal.Element(setName=,uniqueId=158, type=MAPBINDER, keyType=java.lang.String)], provider=@Provides org.matsim.contribs.discrete_mode_choice.modules.TourFinderModule.providePlanTourFinder(TourFinderModule.java:42)[Scopes.SINGLETON]}
2024-03-18T14:18:59,412  INFO Injector:87   --> source: org.matsim.contribs.discrete_mode_choice.modules.AbstractDiscreteModeChoiceExtension.bindTourFinder(AbstractDiscreteModeChoiceExtension.java:94)
2024-03-18T14:18:59,412  INFO Injector:89   --> scope: Scopes.NO_SCOPE
2024-03-18T14:18:59,412  INFO Injector:92   --> target: Key[type=org.matsim.contribs.discrete_mode_choice.components.tour_finder.PlanTourFinder, annotation=[none]]
2024-03-18T14:18:59,412  INFO Injector:94   ==full==> LinkedKeyBinding{key=Key[type=org.matsim.contribs.discrete_mode_choice.components.tour_finder.TourFinder, annotation=@com.google.inject.internal.Element(setName=,uniqueId=158, type=MAPBINDER, keyType=java.lang.String)], source=org.matsim.contribs.discrete_mode_choice.modules.AbstractDiscreteModeChoiceExtension.bindTourFinder(AbstractDiscreteModeChoiceExtension.java:94), scope=Scopes.NO_SCOPE, target=Key[type=org.matsim.contribs.discrete_mode_choice.components.tour_finder.PlanTourFinder, annotation=[none]]}
2024-03-18T14:18:59,412  INFO Injector:96 
2024-03-18T14:18:59,412  INFO Injector:85 org.matsim.contribs.discrete_mode_choice.components.tour_finder.TourFinder @com.google.inject.internal.Element(setName=,uniqueId=160, type=MAPBINDER, keyType=java.lang.String)
2024-03-18T14:18:59,412  INFO Injector:86   --> provider: FactoryProxy{key=Key[type=org.matsim.contribs.discrete_mode_choice.components.tour_finder.TourFinder, annotation=@com.google.inject.internal.Element(setName=,uniqueId=160, type=MAPBINDER, keyType=java.lang.String)], provider=@Provides org.matsim.contribs.discrete_mode_choice.modules.TourFinderModule.provideActivityBasedTourFinder(TourFinderModule.java:48)[Scopes.SINGLETON]}
2024-03-18T14:18:59,412  INFO Injector:87   --> source: org.matsim.contribs.discrete_mode_choice.modules.AbstractDiscreteModeChoiceExtension.bindTourFinder(AbstractDiscreteModeChoiceExtension.java:94)
2024-03-18T14:18:59,412  INFO Injector:89   --> scope: Scopes.NO_SCOPE
2024-03-18T14:18:59,412  INFO Injector:92   --> target: Key[type=org.matsim.contribs.discrete_mode_choice.components.tour_finder.ActivityTourFinder, annotation=[none]]
2024-03-18T14:18:59,412  INFO Injector:94   ==full==> LinkedKeyBinding{key=Key[type=org.matsim.contribs.discrete_mode_choice.components.tour_finder.TourFinder, annotation=@com.google.inject.internal.Element(setName=,uniqueId=160, type=MAPBINDER, keyType=java.lang.String)], source=org.matsim.contribs.discrete_mode_choice.modules.AbstractDiscreteModeChoiceExtension.bindTourFinder(AbstractDiscreteModeChoiceExtension.java:94), scope=Scopes.NO_SCOPE, target=Key[type=org.matsim.contribs.discrete_mode_choice.components.tour_finder.ActivityTourFinder, annotation=[none]]}
2024-03-18T14:18:59,412  INFO Injector:96 
2024-03-18T14:18:59,412  INFO Injector:85 org.matsim.contribs.discrete_mode_choice.components.tour_finder.TourFinder @com.google.inject.internal.Element(setName=,uniqueId=162, type=MAPBINDER, keyType=java.lang.String)
2024-03-18T14:18:59,413  INFO Injector:86   --> provider: FactoryProxy{key=Key[type=org.matsim.contribs.discrete_mode_choice.components.tour_finder.TourFinder, annotation=@com.google.inject.internal.Element(setName=,uniqueId=162, type=MAPBINDER, keyType=java.lang.String)], provider=@Provides org.matsim.contribs.discrete_mode_choice.modules.TourFinderModule.provideHomeTourFinder(TourFinderModule.java:55)[Scopes.SINGLETON]}
2024-03-18T14:18:59,413  INFO Injector:87   --> source: org.matsim.contribs.discrete_mode_choice.modules.AbstractDiscreteModeChoiceExtension.bindTourFinder(AbstractDiscreteModeChoiceExtension.java:94)
2024-03-18T14:18:59,413  INFO Injector:89   --> scope: Scopes.NO_SCOPE
2024-03-18T14:18:59,413  INFO Injector:92   --> target: Key[type=org.matsim.contribs.discrete_mode_choice.components.tour_finder.HomeTourFinder, annotation=[none]]
2024-03-18T14:18:59,413  INFO Injector:94   ==full==> LinkedKeyBinding{key=Key[type=org.matsim.contribs.discrete_mode_choice.components.tour_finder.TourFinder, annotation=@com.google.inject.internal.Element(setName=,uniqueId=162, type=MAPBINDER, keyType=java.lang.String)], source=org.matsim.contribs.discrete_mode_choice.modules.AbstractDiscreteModeChoiceExtension.bindTourFinder(AbstractDiscreteModeChoiceExtension.java:94), scope=Scopes.NO_SCOPE, target=Key[type=org.matsim.contribs.discrete_mode_choice.components.tour_finder.HomeTourFinder, annotation=[none]]}
2024-03-18T14:18:59,413  INFO Injector:96 
2024-03-18T14:18:59,413  INFO Injector:85 org.matsim.contribs.discrete_mode_choice.components.tour_finder.PlanTourFinder 
2024-03-18T14:18:59,413  INFO Injector:86   --> provider: @Provides org.matsim.contribs.discrete_mode_choice.modules.TourFinderModule.providePlanTourFinder(TourFinderModule.java:42)[Scopes.SINGLETON]
2024-03-18T14:18:59,413  INFO Injector:87   --> source: public org.matsim.contribs.discrete_mode_choice.components.tour_finder.PlanTourFinder org.matsim.contribs.discrete_mode_choice.modules.TourFinderModule.providePlanTourFinder()
2024-03-18T14:18:59,413  INFO Injector:89   --> scope: Scopes.SINGLETON
2024-03-18T14:18:59,413  INFO Injector:94   ==full==> ProviderInstanceBinding{key=Key[type=org.matsim.contribs.discrete_mode_choice.components.tour_finder.PlanTourFinder, annotation=[none]], source=public org.matsim.contribs.discrete_mode_choice.components.tour_finder.PlanTourFinder org.matsim.contribs.discrete_mode_choice.modules.TourFinderModule.providePlanTourFinder(), scope=Scopes.SINGLETON, provider=@Provides org.matsim.contribs.discrete_mode_choice.modules.TourFinderModule.providePlanTourFinder(TourFinderModule.java:42)}
2024-03-18T14:18:59,413  INFO Injector:96 
2024-03-18T14:18:59,413  INFO Injector:85 org.matsim.contribs.discrete_mode_choice.components.tour_finder.ActivityTourFinder 
2024-03-18T14:18:59,413  INFO Injector:86   --> provider: @Provides org.matsim.contribs.discrete_mode_choice.modules.TourFinderModule.provideActivityBasedTourFinder(TourFinderModule.java:48)[Scopes.SINGLETON]
2024-03-18T14:18:59,413  INFO Injector:87   --> source: public org.matsim.contribs.discrete_mode_choice.components.tour_finder.ActivityTourFinder org.matsim.contribs.discrete_mode_choice.modules.TourFinderModule.provideActivityBasedTourFinder(org.matsim.contribs.discrete_mode_choice.modules.config.DiscreteModeChoiceConfigGroup)
2024-03-18T14:18:59,413  INFO Injector:89   --> scope: Scopes.SINGLETON
2024-03-18T14:18:59,414  INFO Injector:94   ==full==> ProviderInstanceBinding{key=Key[type=org.matsim.contribs.discrete_mode_choice.components.tour_finder.ActivityTourFinder, annotation=[none]], source=public org.matsim.contribs.discrete_mode_choice.components.tour_finder.ActivityTourFinder org.matsim.contribs.discrete_mode_choice.modules.TourFinderModule.provideActivityBasedTourFinder(org.matsim.contribs.discrete_mode_choice.modules.config.DiscreteModeChoiceConfigGroup), scope=Scopes.SINGLETON, provider=@Provides org.matsim.contribs.discrete_mode_choice.modules.TourFinderModule.provideActivityBasedTourFinder(TourFinderModule.java:48)}
2024-03-18T14:18:59,414  INFO Injector:96 
2024-03-18T14:18:59,414  INFO Injector:85 org.matsim.contribs.discrete_mode_choice.components.tour_finder.HomeTourFinder 
2024-03-18T14:18:59,414  INFO Injector:86   --> provider: @Provides org.matsim.contribs.discrete_mode_choice.modules.TourFinderModule.provideHomeTourFinder(TourFinderModule.java:55)[Scopes.SINGLETON]
2024-03-18T14:18:59,414  INFO Injector:87   --> source: public org.matsim.contribs.discrete_mode_choice.components.tour_finder.HomeTourFinder org.matsim.contribs.discrete_mode_choice.modules.TourFinderModule.provideHomeTourFinder(org.matsim.contribs.discrete_mode_choice.components.utils.home_finder.HomeFinder)
2024-03-18T14:18:59,414  INFO Injector:89   --> scope: Scopes.SINGLETON
2024-03-18T14:18:59,414  INFO Injector:94   ==full==> ProviderInstanceBinding{key=Key[type=org.matsim.contribs.discrete_mode_choice.components.tour_finder.HomeTourFinder, annotation=[none]], source=public org.matsim.contribs.discrete_mode_choice.components.tour_finder.HomeTourFinder org.matsim.contribs.discrete_mode_choice.modules.TourFinderModule.provideHomeTourFinder(org.matsim.contribs.discrete_mode_choice.components.utils.home_finder.HomeFinder), scope=Scopes.SINGLETON, provider=@Provides org.matsim.contribs.discrete_mode_choice.modules.TourFinderModule.provideHomeTourFinder(TourFinderModule.java:55)}
2024-03-18T14:18:59,414  INFO Injector:96 
2024-03-18T14:18:59,414  INFO Injector:85 org.matsim.contribs.discrete_mode_choice.components.tour_finder.TourFinder 
2024-03-18T14:18:59,414  INFO Injector:86   --> provider: @Provides org.matsim.contribs.discrete_mode_choice.modules.TourFinderModule.provideTourFinder(TourFinderModule.java:62)[Scopes.SINGLETON]
2024-03-18T14:18:59,414  INFO Injector:87   --> source: public org.matsim.contribs.discrete_mode_choice.components.tour_finder.TourFinder org.matsim.contribs.discrete_mode_choice.modules.TourFinderModule.provideTourFinder(org.matsim.contribs.discrete_mode_choice.modules.config.DiscreteModeChoiceConfigGroup,java.util.Map)
2024-03-18T14:18:59,414  INFO Injector:89   --> scope: Scopes.SINGLETON
2024-03-18T14:18:59,414  INFO Injector:94   ==full==> ProviderInstanceBinding{key=Key[type=org.matsim.contribs.discrete_mode_choice.components.tour_finder.TourFinder, annotation=[none]], source=public org.matsim.contribs.discrete_mode_choice.components.tour_finder.TourFinder org.matsim.contribs.discrete_mode_choice.modules.TourFinderModule.provideTourFinder(org.matsim.contribs.discrete_mode_choice.modules.config.DiscreteModeChoiceConfigGroup,java.util.Map), scope=Scopes.SINGLETON, provider=@Provides org.matsim.contribs.discrete_mode_choice.modules.TourFinderModule.provideTourFinder(TourFinderModule.java:62)}
2024-03-18T14:18:59,414  INFO Injector:96 
2024-03-18T14:18:59,415  INFO Injector:85 org.matsim.contribs.discrete_mode_choice.model.utilities.UtilitySelectorFactory @com.google.inject.internal.Element(setName=,uniqueId=164, type=MAPBINDER, keyType=java.lang.String)
2024-03-18T14:18:59,415  INFO Injector:86   --> provider: FactoryProxy{key=Key[type=org.matsim.contribs.discrete_mode_choice.model.utilities.UtilitySelectorFactory, annotation=@com.google.inject.internal.Element(setName=,uniqueId=164, type=MAPBINDER, keyType=java.lang.String)], provider=@Provides org.matsim.contribs.discrete_mode_choice.modules.SelectorModule.provideMaximumTripSelector(SelectorModule.java:54)[Scopes.SINGLETON]}
2024-03-18T14:18:59,415  INFO Injector:87   --> source: org.matsim.contribs.discrete_mode_choice.modules.AbstractDiscreteModeChoiceExtension.bindSelectorFactory(AbstractDiscreteModeChoiceExtension.java:86)
2024-03-18T14:18:59,415  INFO Injector:89   --> scope: Scopes.NO_SCOPE
2024-03-18T14:18:59,415  INFO Injector:92   --> target: Key[type=org.matsim.contribs.discrete_mode_choice.model.utilities.MaximumSelector$Factory, annotation=[none]]
2024-03-18T14:18:59,415  INFO Injector:94   ==full==> LinkedKeyBinding{key=Key[type=org.matsim.contribs.discrete_mode_choice.model.utilities.UtilitySelectorFactory, annotation=@com.google.inject.internal.Element(setName=,uniqueId=164, type=MAPBINDER, keyType=java.lang.String)], source=org.matsim.contribs.discrete_mode_choice.modules.AbstractDiscreteModeChoiceExtension.bindSelectorFactory(AbstractDiscreteModeChoiceExtension.java:86), scope=Scopes.NO_SCOPE, target=Key[type=org.matsim.contribs.discrete_mode_choice.model.utilities.MaximumSelector$Factory, annotation=[none]]}
2024-03-18T14:18:59,415  INFO Injector:96 
2024-03-18T14:18:59,415  INFO Injector:85 org.matsim.contribs.discrete_mode_choice.model.utilities.UtilitySelectorFactory @com.google.inject.internal.Element(setName=,uniqueId=166, type=MAPBINDER, keyType=java.lang.String)
2024-03-18T14:18:59,416  INFO Injector:86   --> provider: FactoryProxy{key=Key[type=org.matsim.contribs.discrete_mode_choice.model.utilities.UtilitySelectorFactory, annotation=@com.google.inject.internal.Element(setName=,uniqueId=166, type=MAPBINDER, keyType=java.lang.String)], provider=@Provides org.matsim.contribs.discrete_mode_choice.modules.SelectorModule.provideMultinomialLogitTripSelector(SelectorModule.java:61)[Scopes.SINGLETON]}
2024-03-18T14:18:59,416  INFO Injector:87   --> source: org.matsim.contribs.discrete_mode_choice.modules.AbstractDiscreteModeChoiceExtension.bindSelectorFactory(AbstractDiscreteModeChoiceExtension.java:86)
2024-03-18T14:18:59,416  INFO Injector:89   --> scope: Scopes.NO_SCOPE
2024-03-18T14:18:59,416  INFO Injector:92   --> target: Key[type=org.matsim.contribs.discrete_mode_choice.model.utilities.MultinomialLogitSelector$Factory, annotation=[none]]
2024-03-18T14:18:59,416  INFO Injector:94   ==full==> LinkedKeyBinding{key=Key[type=org.matsim.contribs.discrete_mode_choice.model.utilities.UtilitySelectorFactory, annotation=@com.google.inject.internal.Element(setName=,uniqueId=166, type=MAPBINDER, keyType=java.lang.String)], source=org.matsim.contribs.discrete_mode_choice.modules.AbstractDiscreteModeChoiceExtension.bindSelectorFactory(AbstractDiscreteModeChoiceExtension.java:86), scope=Scopes.NO_SCOPE, target=Key[type=org.matsim.contribs.discrete_mode_choice.model.utilities.MultinomialLogitSelector$Factory, annotation=[none]]}
2024-03-18T14:18:59,416  INFO Injector:96 
2024-03-18T14:18:59,416  INFO Injector:85 org.matsim.contribs.discrete_mode_choice.model.utilities.UtilitySelectorFactory @com.google.inject.internal.Element(setName=,uniqueId=168, type=MAPBINDER, keyType=java.lang.String)
2024-03-18T14:18:59,416  INFO Injector:86   --> provider: FactoryProxy{key=Key[type=org.matsim.contribs.discrete_mode_choice.model.utilities.UtilitySelectorFactory, annotation=@com.google.inject.internal.Element(setName=,uniqueId=168, type=MAPBINDER, keyType=java.lang.String)], provider=@Provides org.matsim.contribs.discrete_mode_choice.modules.SelectorModule.provideRandomTripSelector(SelectorModule.java:69)[Scopes.SINGLETON]}
2024-03-18T14:18:59,416  INFO Injector:87   --> source: org.matsim.contribs.discrete_mode_choice.modules.AbstractDiscreteModeChoiceExtension.bindSelectorFactory(AbstractDiscreteModeChoiceExtension.java:86)
2024-03-18T14:18:59,416  INFO Injector:89   --> scope: Scopes.NO_SCOPE
2024-03-18T14:18:59,416  INFO Injector:92   --> target: Key[type=org.matsim.contribs.discrete_mode_choice.model.utilities.RandomSelector$Factory, annotation=[none]]
2024-03-18T14:18:59,416  INFO Injector:94   ==full==> LinkedKeyBinding{key=Key[type=org.matsim.contribs.discrete_mode_choice.model.utilities.UtilitySelectorFactory, annotation=@com.google.inject.internal.Element(setName=,uniqueId=168, type=MAPBINDER, keyType=java.lang.String)], source=org.matsim.contribs.discrete_mode_choice.modules.AbstractDiscreteModeChoiceExtension.bindSelectorFactory(AbstractDiscreteModeChoiceExtension.java:86), scope=Scopes.NO_SCOPE, target=Key[type=org.matsim.contribs.discrete_mode_choice.model.utilities.RandomSelector$Factory, annotation=[none]]}
2024-03-18T14:18:59,416  INFO Injector:96 
2024-03-18T14:18:59,416  INFO Injector:85 org.matsim.contribs.discrete_mode_choice.model.utilities.RandomSelector$Factory 
2024-03-18T14:18:59,416  INFO Injector:86   --> provider: @Provides org.matsim.contribs.discrete_mode_choice.modules.SelectorModule.provideRandomTripSelector(SelectorModule.java:69)[Scopes.SINGLETON]
[...]
2024-03-18T14:32:31,446  INFO ParallelProgress:26 Cutting population ... 3759840/8957110 (41.98%)
2024-03-18T14:32:32,447  INFO ParallelProgress:26 Cutting population ... 3764080/8957110 (42.02%)
2024-03-18T14:32:33,447  INFO ParallelProgress:26 Cutting population ... 3768320/8957110 (42.07%)
2024-03-18T14:32:34,447  INFO ParallelProgress:26 Cutting population ... 3772600/8957110 (42.12%)
2024-03-18T14:32:35,448  INFO ParallelProgress:26 Cutting population ... 3777000/8957110 (42.17%)
2024-03-18T14:32:36,448  INFO ParallelProgress:26 Cutting population ... 3781240/8957110 (42.21%)
java.lang.ArrayIndexOutOfBoundsException
2024-03-18T14:32:37,449  INFO ParallelProgress:26 Cutting population ... 3785400/8957110 (42.26%)
2024-03-18T14:32:38,449  INFO ParallelProgress:26 Cutting population ... 3789640/8957110 (42.31%)
2024-03-18T14:32:39,449  INFO ParallelProgress:26 Cutting population ... 3793840/8957110 (42.36%)
2024-03-18T14:32:40,449  INFO ParallelProgress:26 Cutting population ... 3797960/8957110 (42.40%)
2024-03-18T14:32:41,450  INFO ParallelProgress:26 Cutting population ... 3802240/8957110 (42.45%)
2024-03-18T14:32:42,483  INFO ParallelProgress:26 Cutting population ... 3806400/8957110 (42.50%)
2024-03-18T14:32:43,484  INFO ParallelProgress:26 Cutting population ... 3810800/8957110 (42.54%)
2024-03-18T14:32:44,484  INFO ParallelProgress:26 Cutting population ... 3814800/8957110 (42.59%)
2024-03-18T14:32:45,484  INFO ParallelProgress:26 Cutting population ... 3818920/8957110 (42.64%)
2024-03-18T14:32:46,501  INFO ParallelProgress:26 Cutting population ... 3823200/8957110 (42.68%)
2024-03-18T14:32:47,501  INFO ParallelProgress:26 Cutting population ... 3827320/8957110 (42.73%)
2024-03-18T14:32:48,502  INFO ParallelProgress:26 Cutting population ... 3831200/8957110 (42.77%)
2024-03-18T14:32:49,502  INFO ParallelProgress:26 Cutting population ... 3835080/8957110 (42.82%)
2024-03-18T14:32:50,502  INFO ParallelProgress:26 Cutting population ... 3839320/8957110 (42.86%)
2024-03-18T14:32:51,503  INFO ParallelProgress:26 Cutting population ... 3843560/8957110 (42.91%)
2024-03-18T14:32:52,503  INFO ParallelProgress:26 Cutting population ... 3847520/8957110 (42.95%)
2024-03-18T14:32:53,503  INFO ParallelProgress:26 Cutting population ... 3851600/8957110 (43.00%)
2024-03-18T14:32:54,504  INFO ParallelProgress:26 Cutting population ... 3855880/8957110 (43.05%)
2024-03-18T14:32:55,504  INFO ParallelProgress:26 Cutting population ... 3859920/8957110 (43.09%)
2024-03-18T14:32:56,504  INFO ParallelProgress:26 Cutting population ... 3864160/8957110 (43.14%)
2024-03-18T14:32:57,505  INFO ParallelProgress:26 Cutting population ... 3868280/8957110 (43.19%)
2024-03-18T14:32:58,505  INFO ParallelProgress:26 Cutting population ... 3872560/8957110 (43.23%)
2024-03-18T14:32:59,505  INFO ParallelProgress:26 Cutting population ... 3876800/8957110 (43.28%)
2024-03-18T14:33:00,506  INFO ParallelProgress:26 Cutting population ... 3880920/8957110 (43.33%)
2024-03-18T14:33:01,506  INFO ParallelProgress:26 Cutting population ... 3884960/8957110 (43.37%)
2024-03-18T14:33:02,506  INFO ParallelProgress:26 Cutting population ... 3889240/8957110 (43.42%)
2024-03-18T14:33:03,507  INFO ParallelProgress:26 Cutting population ... 3893240/8957110 (43.47%)
2024-03-18T14:33:04,507  INFO ParallelProgress:26 Cutting population ... 3897320/8957110 (43.51%)
2024-03-18T14:33:05,507  INFO ParallelProgress:26 Cutting population ... 3901440/8957110 (43.56%)
2024-03-18T14:33:06,508  INFO ParallelProgress:26 Cutting population ... 3905760/8957110 (43.61%)
2024-03-18T14:33:07,508  INFO ParallelProgress:26 Cutting population ... 3909920/8957110 (43.65%)
2024-03-18T14:33:08,508  INFO ParallelProgress:26 Cutting population ... 3913680/8957110 (43.69%)
2024-03-18T14:33:09,509  INFO ParallelProgress:26 Cutting population ... 3917640/8957110 (43.74%)
2024-03-18T14:33:10,509  INFO ParallelProgress:26 Cutting population ... 3921680/8957110 (43.78%)
2024-03-18T14:33:11,509  INFO ParallelProgress:26 Cutting population ... 3925680/8957110 (43.83%)
2024-03-18T14:33:12,510  INFO ParallelProgress:26 Cutting population ... 3929680/8957110 (43.87%)
2024-03-18T14:33:13,510  INFO ParallelProgress:26 Cutting population ... 3933800/8957110 (43.92%)
2024-03-18T14:33:14,510  INFO ParallelProgress:26 Cutting population ... 3937960/8957110 (43.96%)
2024-03-18T14:33:15,511  INFO ParallelProgress:26 Cutting population ... 3942080/8957110 (44.01%)
2024-03-18T14:33:16,511  INFO ParallelProgress:26 Cutting population ... 3946120/8957110 (44.06%)
2024-03-18T14:33:17,511  INFO ParallelProgress:26 Cutting population ... 3950400/8957110 (44.10%)
2024-03-18T14:33:18,512  INFO ParallelProgress:26 Cutting population ... 3954640/8957110 (44.15%)
2024-03-18T14:33:19,512  INFO ParallelProgress:26 Cutting population ... 3958720/8957110 (44.20%)
2024-03-18T14:33:20,512  INFO ParallelProgress:26 Cutting population ... 3962800/8957110 (44.24%)
java.lang.ArrayIndexOutOfBoundsException
2024-03-18T14:33:21,513  INFO ParallelProgress:26 Cutting population ... 3966840/8957110 (44.29%)
2024-03-18T14:33:22,513  INFO ParallelProgress:26 Cutting population ... 3970240/8957110 (44.33%)
2024-03-18T14:33:23,513  INFO ParallelProgress:26 Cutting population ... 3973600/8957110 (44.36%)
2024-03-18T14:33:24,514  INFO ParallelProgress:26 Cutting population ... 3977040/8957110 (44.40%)
2024-03-18T14:33:25,514  INFO ParallelProgress:26 Cutting population ... 3980440/8957110 (44.44%)
2024-03-18T14:33:26,514  INFO ParallelProgress:26 Cutting population ... 3983880/8957110 (44.48%)
2024-03-18T14:33:27,515  INFO ParallelProgress:26 Cutting population ... 3987600/8957110 (44.52%)
2024-03-18T14:33:28,515  INFO ParallelProgress:26 Cutting population ... 3991160/8957110 (44.56%)
2024-03-18T14:33:29,515  INFO ParallelProgress:26 Cutting population ... 3994840/8957110 (44.60%)
2024-03-18T14:33:30,516  INFO ParallelProgress:26 Cutting population ... 3998520/8957110 (44.64%)
2024-03-18T14:33:31,516  INFO ParallelProgress:26 Cutting population ... 4002040/8957110 (44.68%)
2024-03-18T14:33:32,516  INFO ParallelProgress:26 Cutting population ... 4005640/8957110 (44.72%)
2024-03-18T14:33:33,516  INFO ParallelProgress:26 Cutting population ... 4009080/8957110 (44.76%)
2024-03-18T14:33:34,517  INFO ParallelProgress:26 Cutting population ... 4012560/8957110 (44.80%)
2024-03-18T14:33:35,517  INFO ParallelProgress:26 Cutting population ... 4016200/8957110 (44.84%)
2024-03-18T14:33:36,517  INFO ParallelProgress:26 Cutting population ... 4019720/8957110 (44.88%)
2024-03-18T14:33:37,518  INFO ParallelProgress:26 Cutting population ... 4023440/8957110 (44.92%)
2024-03-18T14:33:38,518  INFO ParallelProgress:26 Cutting population ... 4027120/8957110 (44.96%)
2024-03-18T14:33:39,518  INFO ParallelProgress:26 Cutting population ... 4030720/8957110 (45.00%)
2024-03-18T14:33:40,519  INFO ParallelProgress:26 Cutting population ... 4034320/8957110 (45.04%)
2024-03-18T14:33:41,519  INFO ParallelProgress:26 Cutting population ... 4037840/8957110 (45.08%)
2024-03-18T14:33:42,519  INFO ParallelProgress:26 Cutting population ... 4041240/8957110 (45.12%)
2024-03-18T14:33:43,520  INFO ParallelProgress:26 Cutting population ... 4044840/8957110 (45.16%)
2024-03-18T14:33:44,520  INFO ParallelProgress:26 Cutting population ... 4048280/8957110 (45.20%)
2024-03-18T14:33:45,520  INFO ParallelProgress:26 Cutting population ... 4051760/8957110 (45.24%)
2024-03-18T14:33:46,520  INFO ParallelProgress:26 Cutting population ... 4055440/8957110 (45.28%)
2024-03-18T14:33:47,521  INFO ParallelProgress:26 Cutting population ... 4058880/8957110 (45.31%)
2024-03-18T14:33:48,521  INFO ParallelProgress:26 Cutting population ... 4062240/8957110 (45.35%)
2024-03-18T14:33:49,521  INFO ParallelProgress:26 Cutting population ... 4065720/8957110 (45.39%)
2024-03-18T14:33:50,522  INFO ParallelProgress:26 Cutting population ... 4069160/8957110 (45.43%)
2024-03-18T14:33:51,522  INFO ParallelProgress:26 Cutting population ... 4072760/8957110 (45.47%)
2024-03-18T14:33:52,522  INFO ParallelProgress:26 Cutting population ... 4076200/8957110 (45.51%)
2024-03-18T14:33:53,523  INFO ParallelProgress:26 Cutting population ... 4079440/8957110 (45.54%)
2024-03-18T14:33:54,523  INFO ParallelProgress:26 Cutting population ... 4083040/8957110 (45.58%)
2024-03-18T14:33:55,523  INFO ParallelProgress:26 Cutting population ... 4086560/8957110 (45.62%)
2024-03-18T14:33:56,524  INFO ParallelProgress:26 Cutting population ... 4090080/8957110 (45.66%)
2024-03-18T14:33:57,524  INFO ParallelProgress:26 Cutting population ... 4093680/8957110 (45.70%)
2024-03-18T14:33:58,524  INFO ParallelProgress:26 Cutting population ... 4097120/8957110 (45.74%)
2024-03-18T14:33:59,524  INFO ParallelProgress:26 Cutting population ... 4100480/8957110 (45.78%)
2024-03-18T14:34:00,525  INFO ParallelProgress:26 Cutting population ... 4103880/8957110 (45.82%)
2024-03-18T14:34:01,525  INFO ParallelProgress:26 Cutting population ... 4107200/8957110 (45.85%)
2024-03-18T14:34:02,525  INFO ParallelProgress:26 Cutting population ... 4110760/8957110 (45.89%)
2024-03-18T14:34:03,526  INFO ParallelProgress:26 Cutting population ... 4114040/8957110 (45.93%)
2024-03-18T14:34:04,526  INFO ParallelProgress:26 Cutting population ... 4117480/8957110 (45.97%)
2024-03-18T14:34:05,526  INFO ParallelProgress:26 Cutting population ... 4121000/8957110 (46.01%)
2024-03-18T14:34:06,527  INFO ParallelProgress:26 Cutting population ... 4124360/8957110 (46.05%)
2024-03-18T14:34:07,527  INFO ParallelProgress:26 Cutting population ... 4127720/8957110 (46.08%)
2024-03-18T14:34:08,527  INFO ParallelProgress:26 Cutting population ... 4131240/8957110 (46.12%)
2024-03-18T14:34:09,528  INFO ParallelProgress:26 Cutting population ... 4134760/8957110 (46.16%)
2024-03-18T14:34:10,528  INFO ParallelProgress:26 Cutting population ... 4138360/8957110 (46.20%)
2024-03-18T14:34:11,528  INFO ParallelProgress:26 Cutting population ... 4142040/8957110 (46.24%)
2024-03-18T14:34:12,529  INFO ParallelProgress:26 Cutting population ... 4145400/8957110 (46.28%)
java.lang.ArrayIndexOutOfBoundsException
2024-03-18T14:34:13,529  INFO ParallelProgress:26 Cutting population ... 4148640/8957110 (46.32%)
2024-03-18T14:34:14,529  INFO ParallelProgress:26 Cutting population ... 4151360/8957110 (46.35%)
2024-03-18T14:34:15,530  INFO ParallelProgress:26 Cutting population ... 4154240/8957110 (46.38%)
2024-03-18T14:34:16,530  INFO ParallelProgress:26 Cutting population ... 4156960/8957110 (46.41%)
2024-03-18T14:34:17,564  INFO ParallelProgress:26 Cutting population ... 4159800/8957110 (46.44%)
2024-03-18T14:34:18,564  INFO ParallelProgress:26 Cutting population ... 4162640/8957110 (46.47%)
2024-03-18T14:34:19,565  INFO ParallelProgress:26 Cutting population ... 4165440/8957110 (46.50%)
2024-03-18T14:34:20,565  INFO ParallelProgress:26 Cutting population ... 4168360/8957110 (46.54%)
2024-03-18T14:34:21,566  INFO ParallelProgress:26 Cutting population ... 4171200/8957110 (46.57%)
2024-03-18T14:34:22,566  INFO ParallelProgress:26 Cutting population ... 4174040/8957110 (46.60%)
2024-03-18T14:34:23,567  INFO ParallelProgress:26 Cutting population ... 4176760/8957110 (46.63%)
2024-03-18T14:34:24,567  INFO ParallelProgress:26 Cutting population ... 4179720/8957110 (46.66%)
2024-03-18T14:34:25,568  INFO ParallelProgress:26 Cutting population ... 4182520/8957110 (46.69%)
2024-03-18T14:34:26,568  INFO ParallelProgress:26 Cutting population ... 4185480/8957110 (46.73%)
2024-03-18T14:34:27,569  INFO ParallelProgress:26 Cutting population ... 4188360/8957110 (46.76%)
2024-03-18T14:34:28,569  INFO ParallelProgress:26 Cutting population ... 4191240/8957110 (46.79%)
2024-03-18T14:34:29,570  INFO ParallelProgress:26 Cutting population ... 4193920/8957110 (46.82%)
2024-03-18T14:34:30,570  INFO ParallelProgress:26 Cutting population ... 4196960/8957110 (46.86%)
2024-03-18T14:34:31,571  INFO ParallelProgress:26 Cutting population ... 4199680/8957110 (46.89%)
2024-03-18T14:34:32,571  INFO ParallelProgress:26 Cutting population ... 4202200/8957110 (46.91%)
2024-03-18T14:34:33,572  INFO ParallelProgress:26 Cutting population ... 4204880/8957110 (46.94%)
2024-03-18T14:34:34,572  INFO ParallelProgress:26 Cutting population ... 4207760/8957110 (46.98%)
2024-03-18T14:34:35,573  INFO ParallelProgress:26 Cutting population ... 4210520/8957110 (47.01%)
2024-03-18T14:34:36,573  INFO ParallelProgress:26 Cutting population ... 4213440/8957110 (47.04%)
2024-03-18T14:34:37,574  INFO ParallelProgress:26 Cutting population ... 4216240/8957110 (47.07%)
2024-03-18T14:34:38,574  INFO ParallelProgress:26 Cutting population ... 4219000/8957110 (47.10%)
2024-03-18T14:34:39,575  INFO ParallelProgress:26 Cutting population ... 4221800/8957110 (47.13%)
2024-03-18T14:34:40,575  INFO ParallelProgress:26 Cutting population ... 4224800/8957110 (47.17%)
2024-03-18T14:34:41,576  INFO ParallelProgress:26 Cutting population ... 4227640/8957110 (47.20%)
2024-03-18T14:34:42,576  INFO ParallelProgress:26 Cutting population ... 4230600/8957110 (47.23%)
2024-03-18T14:34:43,577  INFO ParallelProgress:26 Cutting population ... 4233440/8957110 (47.26%)
2024-03-18T14:34:44,595  INFO ParallelProgress:26 Cutting population ... 4236320/8957110 (47.30%)
2024-03-18T14:34:45,596  INFO ParallelProgress:26 Cutting population ... 4239280/8957110 (47.33%)
2024-03-18T14:34:46,596  INFO ParallelProgress:26 Cutting population ... 4242200/8957110 (47.36%)
2024-03-18T14:34:47,596  INFO ParallelProgress:26 Cutting population ... 4245120/8957110 (47.39%)
2024-03-18T14:34:48,597  INFO ParallelProgress:26 Cutting population ... 4247800/8957110 (47.42%)
2024-03-18T14:34:49,597  INFO ParallelProgress:26 Cutting population ... 4250640/8957110 (47.46%)
2024-03-18T14:34:50,597  INFO ParallelProgress:26 Cutting population ... 4253360/8957110 (47.49%)
2024-03-18T14:34:51,598  INFO ParallelProgress:26 Cutting population ... 4256320/8957110 (47.52%)
2024-03-18T14:34:52,598  INFO ParallelProgress:26 Cutting population ... 4259160/8957110 (47.55%)
2024-03-18T14:34:53,598  INFO ParallelProgress:26 Cutting population ... 4262040/8957110 (47.58%)
2024-03-18T14:34:54,598  INFO ParallelProgress:26 Cutting population ... 4264840/8957110 (47.61%)
2024-03-18T14:34:55,599  INFO ParallelProgress:26 Cutting population ... 4267720/8957110 (47.65%)
2024-03-18T14:34:56,599  INFO ParallelProgress:26 Cutting population ... 4270480/8957110 (47.68%)
2024-03-18T14:34:57,599  INFO ParallelProgress:26 Cutting population ... 4273360/8957110 (47.71%)
2024-03-18T14:34:58,600  INFO ParallelProgress:26 Cutting population ... 4276040/8957110 (47.74%)
2024-03-18T14:34:59,600  INFO ParallelProgress:26 Cutting population ... 4278960/8957110 (47.77%)
2024-03-18T14:35:00,600  INFO ParallelProgress:26 Cutting population ... 4281800/8957110 (47.80%)
2024-03-18T14:35:01,601  INFO ParallelProgress:26 Cutting population ... 4284760/8957110 (47.84%)
2024-03-18T14:35:02,601  INFO ParallelProgress:26 Cutting population ... 4287600/8957110 (47.87%)
2024-03-18T14:35:03,601  INFO ParallelProgress:26 Cutting population ... 4290560/8957110 (47.90%)
2024-03-18T14:35:04,602  INFO ParallelProgress:26 Cutting population ... 4293440/8957110 (47.93%)
2024-03-18T14:35:05,602  INFO ParallelProgress:26 Cutting population ... 4296200/8957110 (47.96%)
2024-03-18T14:35:06,603  INFO ParallelProgress:26 Cutting population ... 4299040/8957110 (48.00%)
2024-03-18T14:35:07,603  INFO ParallelProgress:26 Cutting population ... 4301840/8957110 (48.03%)
2024-03-18T14:35:08,604  INFO ParallelProgress:26 Cutting population ... 4304680/8957110 (48.06%)
2024-03-18T14:35:09,604  INFO ParallelProgress:26 Cutting population ... 4307440/8957110 (48.09%)
2024-03-18T14:35:10,605  INFO ParallelProgress:26 Cutting population ... 4310280/8957110 (48.12%)
2024-03-18T14:35:11,605  INFO ParallelProgress:26 Cutting population ... 4312800/8957110 (48.15%)
2024-03-18T14:35:12,606  INFO ParallelProgress:26 Cutting population ... 4315560/8957110 (48.18%)
2024-03-18T14:35:13,606  INFO ParallelProgress:26 Cutting population ... 4318240/8957110 (48.21%)
2024-03-18T14:35:14,606  INFO ParallelProgress:26 Cutting population ... 4321120/8957110 (48.24%)
2024-03-18T14:35:15,607  INFO ParallelProgress:26 Cutting population ... 4323680/8957110 (48.27%)
2024-03-18T14:35:16,607  INFO ParallelProgress:26 Cutting population ... 4326360/8957110 (48.30%)
2024-03-18T14:35:17,608  INFO ParallelProgress:26 Cutting population ... 4328880/8957110 (48.33%)
2024-03-18T14:35:18,608  INFO ParallelProgress:26 Cutting population ... 4331360/8957110 (48.36%)
2024-03-18T14:35:19,609  INFO ParallelProgress:26 Cutting population ... 4334000/8957110 (48.39%)
2024-03-18T14:35:20,609  INFO ParallelProgress:26 Cutting population ... 4336600/8957110 (48.42%)
2024-03-18T14:35:21,610  INFO ParallelProgress:26 Cutting population ... 4339400/8957110 (48.45%)
2024-03-18T14:35:22,610  INFO ParallelProgress:26 Cutting population ... 4342320/8957110 (48.48%)
2024-03-18T14:35:23,611  INFO ParallelProgress:26 Cutting population ... 4344920/8957110 (48.51%)
2024-03-18T14:35:24,611  INFO ParallelProgress:26 Cutting population ... 4347680/8957110 (48.54%)
2024-03-18T14:35:25,612  INFO ParallelProgress:26 Cutting population ... 4350480/8957110 (48.57%)
2024-03-18T14:35:26,612  INFO ParallelProgress:26 Cutting population ... 4353680/8957110 (48.61%)
2024-03-18T14:35:27,613  INFO ParallelProgress:26 Cutting population ... 4356720/8957110 (48.64%)
2024-03-18T14:35:28,613  INFO ParallelProgress:26 Cutting population ... 4360320/8957110 (48.68%)
2024-03-18T14:35:29,614  INFO ParallelProgress:26 Cutting population ... 4364680/8957110 (48.73%)
2024-03-18T14:35:30,614  INFO ParallelProgress:26 Cutting population ... 4368400/8957110 (48.77%)
2024-03-18T14:35:31,615  INFO ParallelProgress:26 Cutting population ... 4370960/8957110 (48.80%)
2024-03-18T14:35:32,615  INFO ParallelProgress:26 Cutting population ... 4374120/8957110 (48.83%)
2024-03-18T14:35:33,615  INFO ParallelProgress:26 Cutting population ... 4377760/8957110 (48.87%)
2024-03-18T14:35:34,615  INFO ParallelProgress:26 Cutting population ... 4380520/8957110 (48.91%)
2024-03-18T14:35:35,616  INFO ParallelProgress:26 Cutting population ... 4383400/8957110 (48.94%)
2024-03-18T14:35:36,616  INFO ParallelProgress:26 Cutting population ... 4385920/8957110 (48.97%)
2024-03-18T14:35:37,616  INFO ParallelProgress:26 Cutting population ... 4388640/8957110 (49.00%)
2024-03-18T14:35:38,617  INFO ParallelProgress:26 Cutting population ... 4391200/8957110 (49.02%)
2024-03-18T14:35:39,617  INFO ParallelProgress:26 Cutting population ... 4394120/8957110 (49.06%)
2024-03-18T14:35:40,617  INFO ParallelProgress:26 Cutting population ... 4396840/8957110 (49.09%)
2024-03-18T14:35:41,618  INFO ParallelProgress:26 Cutting population ... 4399640/8957110 (49.12%)
2024-03-18T14:35:42,618  INFO ParallelProgress:26 Cutting population ... 4402440/8957110 (49.15%)
2024-03-18T14:35:43,619  INFO ParallelProgress:26 Cutting population ... 4405320/8957110 (49.18%)
2024-03-18T14:35:44,619  INFO ParallelProgress:26 Cutting population ... 4408680/8957110 (49.22%)
2024-03-18T14:35:45,620  INFO ParallelProgress:26 Cutting population ... 4411840/8957110 (49.26%)
2024-03-18T14:35:46,620  INFO ParallelProgress:26 Cutting population ... 4415440/8957110 (49.30%)
2024-03-18T14:35:47,621  INFO ParallelProgress:26 Cutting population ... 4418640/8957110 (49.33%)
2024-03-18T14:35:48,621  INFO ParallelProgress:26 Cutting population ... 4422040/8957110 (49.37%)
2024-03-18T14:35:49,622  INFO ParallelProgress:26 Cutting population ... 4425280/8957110 (49.41%)
2024-03-18T14:35:50,622  INFO ParallelProgress:26 Cutting population ... 4429120/8957110 (49.45%)
2024-03-18T14:35:51,623  INFO ParallelProgress:26 Cutting population ... 4432480/8957110 (49.49%)
2024-03-18T14:35:52,623  INFO ParallelProgress:26 Cutting population ... 4436120/8957110 (49.53%)
