WARNING: sun.reflect.Reflection.getCallerClass is not supported. This will impact performance.
2024-03-18T13:46:03,090  INFO CommandLine:505 Received 0 positional command line arguments:
2024-03-18T13:46:03,093  INFO CommandLine:506    
2024-03-18T13:46:03,093  INFO CommandLine:528 Received 3 command line options with 0 prefixes:
2024-03-18T13:46:03,093  INFO CommandLine:533    config-path = /home/muaa/ABM_DATA/switzerland_2020_baseline/switzerland_config_mod.xml
2024-03-18T13:46:03,094  INFO CommandLine:533    extent-path = /home/muaa/ABM_DATA/ShapeFiles/Frauenfeld/Frauenfeld.shp
2024-03-18T13:46:03,094  INFO CommandLine:533    output-path = /home/muaa/FrauenfeldScenario
2024-03-18T13:46:03,868  INFO IOUtils:187 Resolved /home/muaa/ABM_DATA/switzerland_2020_baseline/switzerland_config_mod.xml to /home/muaa/ABM_DATA/switzerland_2020_baseline/switzerland_config_mod.xml
2024-03-18T13:46:03,871  INFO Config:572 setting context to [file:/home/muaa/2023_ABMT_Corrado/abmt2023/]
2024-03-18T13:46:03,918  INFO Version:21 HV000001: Hibernate Validator null
2024-03-18T13:46:04,038  INFO MatsimXmlParser:160 starting to parse xml from url file:/home/muaa/ABM_DATA/switzerland_2020_baseline/switzerland_config_mod.xml ...
2024-03-18T13:46:04,064  INFO ConfigReader:102 using config_v2-reader
2024-03-18T13:46:04,065  INFO MatsimXmlParser:276 Trying to load http://www.matsim.org/files/dtd/config_v2.dtd. In some cases (e.g. network interface up but no connection), this may take a bit.
2024-03-18T13:46:04,345  INFO GlobalConfigGroup:92 setting number of threads to: 4
2024-03-18T13:46:04,348  WARN PlanCalcScoreConfigGroup$ReflectiveDelegate:1622 Setting pathSizeLogitBeta different from zero is experimental.  KN, Sep'08
2024-03-18T13:46:04,380  INFO PlanCalcScoreConfigGroup:554 scoring parameters for subpopulation null were just replaced.
2024-03-18T13:46:04,383  WARN PlansCalcRouteConfigGroup:342 The first mode routing params that are explicitly defined clear the default mode routing params.  This functionality was removed for 
2024-03-18T13:46:04,383  WARN PlansCalcRouteConfigGroup:343     some weeks in the development head, after release 11.x, and before release 12.x; it is now back.  If you want to avoid this 
2024-03-18T13:46:04,383  WARN PlansCalcRouteConfigGroup:344     warning, use clearModeRoutingParams(true) in code, and "clearDefaultTeleportedModeParams"=true in xml config.
2024-03-18T13:46:04,395  INFO Config:572 setting context to [file:/home/muaa/ABM_DATA/switzerland_2020_baseline/switzerland_config_mod.xml]
2024-03-18T13:46:04,424  INFO ScenarioLoaderImpl:134 loading network from file:/home/muaa/ABM_DATA/switzerland_2020_baseline/switzerland_network.xml.gz
2024-03-18T13:46:04,426  INFO MatsimXmlParser:160 starting to parse xml from url file:/home/muaa/ABM_DATA/switzerland_2020_baseline/switzerland_network.xml.gz ...
2024-03-18T13:46:04,542  INFO MatsimNetworkReader:120 using network_v2-reader.
2024-03-18T13:46:04,542  INFO MatsimXmlParser:276 Trying to load http://www.matsim.org/files/dtd/network_v2.dtd. In some cases (e.g. network interface up but no connection), this may take a bit.
2024-03-18T13:46:04,574  INFO NetworkImpl:163  node # 1
2024-03-18T13:46:04,575  INFO NetworkImpl:163  node # 4
2024-03-18T13:46:04,578  INFO NetworkImpl:163  node # 16
2024-03-18T13:46:04,584  INFO NetworkImpl:163  node # 64
2024-03-18T13:46:04,603  INFO NetworkImpl:163  node # 256
2024-03-18T13:46:04,635  INFO NetworkImpl:163  node # 1024
2024-03-18T13:46:04,683  INFO NetworkImpl:163  node # 4096
2024-03-18T13:46:04,821  INFO NetworkImpl:163  node # 16384
2024-03-18T13:46:05,207  INFO NetworkImpl:163  node # 65536
2024-03-18T13:46:06,116  INFO NetworkImpl:163  node # 262144
2024-03-18T13:46:07,052  INFO NetworkImpl:159  link # 1
2024-03-18T13:46:07,054  INFO NetworkImpl:159  link # 4
2024-03-18T13:46:07,059  INFO NetworkImpl:159  link # 16
2024-03-18T13:46:07,075  INFO NetworkImpl:159  link # 64
2024-03-18T13:46:07,113  INFO NetworkImpl:159  link # 256
2024-03-18T13:46:07,185  INFO NetworkImpl:159  link # 1024
2024-03-18T13:46:07,322  INFO NetworkImpl:159  link # 4096
2024-03-18T13:46:07,475  WARN LinkImpl:125 length=0.0 of link id 1008265 may cause problems
2024-03-18T13:46:07,476  WARN LinkImpl:127  Future occurences of this logging statement are suppressed.
2024-03-18T13:46:07,764  INFO NetworkImpl:159  link # 16384
2024-03-18T13:46:08,633  INFO NetworkImpl:159  link # 65536
2024-03-18T13:46:12,391  INFO NetworkImpl:159  link # 262144
2024-03-18T13:46:25,205  INFO ScenarioLoaderImpl:159 loading facilities from file:/home/muaa/ABM_DATA/switzerland_2020_baseline/switzerland_facilities.xml.gz
2024-03-18T13:46:25,207  INFO MatsimXmlParser:160 starting to parse xml from url file:/home/muaa/ABM_DATA/switzerland_2020_baseline/switzerland_facilities.xml.gz ...
2024-03-18T13:46:25,210  INFO MatsimFacilitiesReader:137 using facilities_v1-reader.
2024-03-18T13:46:25,210  INFO MatsimXmlParser:276 Trying to load http://www.matsim.org/files/dtd/facilities_v1.dtd. In some cases (e.g. network interface up but no connection), this may take a bit.
2024-03-18T13:46:48,592  INFO ScenarioLoaderImpl:168 loaded 4487860 facilities from file:/home/muaa/ABM_DATA/switzerland_2020_baseline/switzerland_facilities.xml.gz
2024-03-18T13:46:48,592  INFO ScenarioLoaderImpl:187 no facility-attributes file set in config, not loading any facility attributes
2024-03-18T13:46:48,593  INFO ScenarioLoaderImpl:195 loading population from file:/home/muaa/ABM_DATA/switzerland_2020_baseline/switzerland_population.xml.gz
2024-03-18T13:46:48,596  INFO MatsimXmlParser:160 starting to parse xml from url file:/home/muaa/ABM_DATA/switzerland_2020_baseline/switzerland_population.xml.gz ...
2024-03-18T13:46:48,600  INFO PopulationReader:123 using population_v6-reader.
2024-03-18T13:46:48,600  INFO MatsimXmlParser:276 Trying to load http://www.matsim.org/files/dtd/population_v6.dtd. In some cases (e.g. network interface up but no connection), this may take a bit.
2024-03-18T13:46:48,634  WARN PopulationReaderMatsimV6:213 coordinate transformation defined both in config and in input file: setting from input file will be used
2024-03-18T13:46:48,657  INFO PopulationImpl:105  person # 1
2024-03-18T13:46:48,711  INFO PopulationImpl:105  person # 4
2024-03-18T13:46:48,725  INFO PopulationImpl:105  person # 16
2024-03-18T13:46:48,770  INFO PopulationImpl:105  person # 64
2024-03-18T13:46:49,562  INFO PopulationImpl:105  person # 256
2024-03-18T13:46:50,035  INFO PopulationImpl:105  person # 1024
2024-03-18T13:46:51,427  INFO PopulationImpl:105  person # 4096
2024-03-18T13:46:55,353  INFO PopulationImpl:105  person # 16384
2024-03-18T13:47:07,364  INFO PopulationImpl:105  person # 65536
2024-03-18T13:47:45,367  INFO PopulationImpl:105  person # 262144
2024-03-18T13:50:15,677  INFO PopulationImpl:105  person # 1048576
2024-03-18T14:00:52,619  INFO PopulationImpl:105  person # 4194304
2024-03-18T14:16:10,506  INFO PopulationUtils:1087  person # 8957110
2024-03-18T14:16:10,507  INFO ScenarioLoaderImpl:243 no person-attributes file set in config, not loading any person attributes
2024-03-18T14:16:10,508  INFO ScenarioLoaderImpl:250 loading households from file:/home/muaa/ABM_DATA/switzerland_2020_baseline/switzerland_households.xml.gz
2024-03-18T14:16:10,510  INFO MatsimXmlParser:160 starting to parse xml from url file:/home/muaa/ABM_DATA/switzerland_2020_baseline/switzerland_households.xml.gz ...
2024-03-18T14:16:10,518  INFO MatsimXmlParser:276 Trying to load http://www.matsim.org/files/dtd/households_v1.0.xsd. In some cases (e.g. network interface up but no connection), this may take a bit.
2024-03-18T14:16:10,833  INFO MatsimXmlParser:276 Trying to load http://www.matsim.org/files/dtd/matsimCommon.xsd. In some cases (e.g. network interface up but no connection), this may take a bit.
2024-03-18T14:16:10,892  INFO Counter:69   households # 1
2024-03-18T14:16:10,893  INFO Counter:69   households # 2
2024-03-18T14:16:10,894  INFO Counter:69   households # 4
2024-03-18T14:16:10,897  INFO Counter:69   households # 8
2024-03-18T14:16:10,902  INFO Counter:69   households # 16
2024-03-18T14:16:10,911  INFO Counter:69   households # 32
2024-03-18T14:16:10,927  INFO Counter:69   households # 64
2024-03-18T14:16:10,948  INFO Counter:69   households # 128
2024-03-18T14:16:10,983  INFO Counter:69   households # 256
2024-03-18T14:16:11,022  INFO Counter:69   households # 512
2024-03-18T14:16:11,082  INFO Counter:69   households # 1024
2024-03-18T14:16:11,185  INFO Counter:69   households # 2048
2024-03-18T14:16:11,302  INFO Counter:69   households # 4096
2024-03-18T14:16:11,672  INFO Counter:69   households # 8192
2024-03-18T14:16:11,857  INFO Counter:69   households # 16384
2024-03-18T14:16:12,145  INFO Counter:69   households # 32768
2024-03-18T14:16:12,789  INFO Counter:69   households # 65536
2024-03-18T14:16:14,126  INFO Counter:69   households # 131072
2024-03-18T14:16:16,552  INFO Counter:69   households # 262144
2024-03-18T14:16:23,508  INFO Counter:69   households # 524288
2024-03-18T14:16:39,562  INFO Counter:69   households # 1048576
2024-03-18T14:17:10,408  INFO Counter:69   households # 2097152
2024-03-18T14:17:52,411  INFO Counter:74   households # 3817302
2024-03-18T14:17:52,412  INFO ScenarioLoaderImpl:252 households loaded.
2024-03-18T14:17:52,412  INFO ScenarioLoaderImpl:273 no household-attributes file set in config, not loading any household attributes
2024-03-18T14:17:52,413  INFO MatsimXmlParser:160 starting to parse xml from url file:/home/muaa/ABM_DATA/switzerland_2020_baseline/switzerland_transit_schedule.xml.gz ...
2024-03-18T14:17:52,416  INFO MatsimXmlParser:276 Trying to load http://www.matsim.org/files/dtd/transitSchedule_v2.dtd. In some cases (e.g. network interface up but no connection), this may take a bit.
2024-03-18T14:17:56,883  INFO ScenarioLoaderImpl:324 loading transit vehicles from switzerland_transit_vehicles.xml.gz
2024-03-18T14:17:56,884  INFO MatsimXmlParser:160 starting to parse xml from url file:/home/muaa/ABM_DATA/switzerland_2020_baseline/switzerland_transit_vehicles.xml.gz ...
2024-03-18T14:17:56,886  INFO MatsimXmlParser:276 Trying to load http://www.matsim.org/files/dtd/vehicleDefinitions_v1.0.xsd. In some cases (e.g. network interface up but no connection), this may take a bit.
2024-03-18T14:17:56,914  INFO MatsimXmlParser:276 Trying to load http://www.matsim.org/files/dtd/matsimCommon.xsd. In some cases (e.g. network interface up but no connection), this may take a bit.
2024-03-18T14:17:56,942  INFO MatsimXmlParser:276 Trying to load http://www.matsim.org/files/dtd/vehicleDefinitionsEnumTypes.xsd. In some cases (e.g. network interface up but no connection), this may take a bit.
2024-03-18T14:17:56,985  INFO MatsimVehicleReader$VehicleReader:75 Found following schemaLocation in vehicle definition file: http://www.matsim.org/files/dtd http://www.matsim.org/files/dtd/vehicleDefinitions_v1.0.xsd
2024-03-18T14:17:56,986  INFO VehicleReaderV1:18 Using org.matsim.vehicles.VehicleReaderV1
2024-03-18T14:17:56,999  INFO Counter:69 [VehiclesImpl] added vehicle # 1
2024-03-18T14:17:56,999  INFO Counter:69 [VehiclesImpl] added vehicle # 2
2024-03-18T14:17:57,000  INFO Counter:69 [VehiclesImpl] added vehicle # 4
2024-03-18T14:17:57,000  INFO Counter:69 [VehiclesImpl] added vehicle # 8
2024-03-18T14:17:57,000  INFO Counter:69 [VehiclesImpl] added vehicle # 16
2024-03-18T14:17:57,001  INFO Counter:69 [VehiclesImpl] added vehicle # 32
2024-03-18T14:17:57,002  INFO Counter:69 [VehiclesImpl] added vehicle # 64
2024-03-18T14:17:57,004  INFO Counter:69 [VehiclesImpl] added vehicle # 128
2024-03-18T14:17:57,006  INFO Counter:69 [VehiclesImpl] added vehicle # 256
2024-03-18T14:17:57,011  INFO Counter:69 [VehiclesImpl] added vehicle # 512
2024-03-18T14:17:57,019  INFO Counter:69 [VehiclesImpl] added vehicle # 1024
2024-03-18T14:17:57,029  INFO Counter:69 [VehiclesImpl] added vehicle # 2048
2024-03-18T14:17:57,044  INFO Counter:69 [VehiclesImpl] added vehicle # 4096
2024-03-18T14:17:57,065  INFO Counter:69 [VehiclesImpl] added vehicle # 8192
2024-03-18T14:17:57,104  INFO Counter:69 [VehiclesImpl] added vehicle # 16384
2024-03-18T14:17:57,177  INFO Counter:69 [VehiclesImpl] added vehicle # 32768
2024-03-18T14:17:57,306  INFO Counter:69 [VehiclesImpl] added vehicle # 65536
2024-03-18T14:17:57,424  INFO Counter:69 [VehiclesImpl] added vehicle # 131072
2024-03-18T14:18:56,460  INFO ScenarioValidator:198 Scenario is valid!
2024-03-18T14:18:56,463  INFO NetworkImpl:163  node # 1
2024-03-18T14:18:56,463  INFO NetworkImpl:163  node # 4
2024-03-18T14:18:56,463  INFO NetworkImpl:163  node # 16
2024-03-18T14:18:56,463  INFO NetworkImpl:163  node # 64
2024-03-18T14:18:56,463  INFO NetworkImpl:163  node # 256
2024-03-18T14:18:56,464  INFO NetworkImpl:163  node # 1024
2024-03-18T14:18:56,465  INFO NetworkImpl:163  node # 4096
2024-03-18T14:18:56,469  INFO NetworkImpl:163  node # 16384
2024-03-18T14:18:56,485  INFO NetworkImpl:163  node # 65536
2024-03-18T14:18:56,526  INFO NetworkImpl:163  node # 262144
2024-03-18T14:18:56,561  INFO NetworkImpl:159  link # 1
2024-03-18T14:18:56,561  INFO NetworkImpl:159  link # 4
2024-03-18T14:18:56,561  INFO NetworkImpl:159  link # 16
2024-03-18T14:18:56,561  INFO NetworkImpl:159  link # 64
2024-03-18T14:18:56,563  INFO NetworkImpl:159  link # 256
2024-03-18T14:18:56,568  INFO NetworkImpl:159  link # 1024
2024-03-18T14:18:56,584  INFO NetworkImpl:159  link # 4096
2024-03-18T14:18:56,607  INFO NetworkImpl:159  link # 16384
2024-03-18T14:18:56,692  INFO NetworkImpl:159  link # 65536
2024-03-18T14:18:56,986  INFO NetworkImpl:159  link # 262144
WARNING: An illegal reflective access operation has occurred
WARNING: Illegal reflective access by com.google.inject.internal.cglib.core.$ReflectUtils$1 (file:/home/muaa/2023_ABMT_Corrado/abmt2023/target/abmt2023-0.0.1-SNAPSHOT.jar) to method java.lang.ClassLoader.defineClass(java.lang.String,byte[],int,int,java.security.ProtectionDomain)
WARNING: Please consider reporting this to the maintainers of com.google.inject.internal.cglib.core.$ReflectUtils$1
WARNING: Use --illegal-access=warn to enable warnings of further illegal reflective access operations
WARNING: All illegal access operations will be denied in a future release
2024-03-18T14:18:59,377  INFO SimStepParallelEventsManagerImpl:79 number of threads=1
2024-03-18T14:18:59,384  INFO EventsManagerImpl:160 adding Event-Handler: org.matsim.core.trafficmonitoring.TravelTimeCalculator
2024-03-18T14:18:59,384  INFO EventsManagerImpl:166   org.matsim.api.core.v01.events.handler.LinkEnterEventHandler
2024-03-18T14:18:59,385  INFO EventsManagerImpl:227     > org.matsim.api.core.v01.events.LinkEnterEvent
2024-03-18T14:18:59,385  INFO EventsManagerImpl:166   org.matsim.api.core.v01.events.handler.LinkLeaveEventHandler
2024-03-18T14:18:59,385  INFO EventsManagerImpl:227     > org.matsim.api.core.v01.events.LinkLeaveEvent
2024-03-18T14:18:59,385  INFO EventsManagerImpl:166   org.matsim.api.core.v01.events.handler.VehicleEntersTrafficEventHandler
2024-03-18T14:18:59,385  INFO EventsManagerImpl:227     > org.matsim.api.core.v01.events.VehicleEntersTrafficEvent
2024-03-18T14:18:59,385  INFO EventsManagerImpl:166   org.matsim.api.core.v01.events.handler.VehicleLeavesTrafficEventHandler
2024-03-18T14:18:59,385  INFO EventsManagerImpl:227     > org.matsim.api.core.v01.events.VehicleLeavesTrafficEvent
2024-03-18T14:18:59,386  INFO EventsManagerImpl:166   org.matsim.core.api.experimental.events.handler.VehicleArrivesAtFacilityEventHandler
2024-03-18T14:18:59,386  INFO EventsManagerImpl:227     > org.matsim.core.api.experimental.events.VehicleArrivesAtFacilityEvent
2024-03-18T14:18:59,386  INFO EventsManagerImpl:166   org.matsim.api.core.v01.events.handler.VehicleAbortsEventHandler
2024-03-18T14:18:59,386  INFO EventsManagerImpl:227     > org.matsim.api.core.v01.events.VehicleAbortsEvent
2024-03-18T14:18:59,386  INFO EventsManagerImpl:176 
2024-03-18T14:18:59,386  INFO EventsManagerImpl:160 adding Event-Handler: org.matsim.core.trafficmonitoring.TravelTimeCalculator
2024-03-18T14:18:59,386  INFO EventsManagerImpl:166   org.matsim.api.core.v01.events.handler.LinkEnterEventHandler
2024-03-18T14:18:59,386  INFO EventsManagerImpl:227     > org.matsim.api.core.v01.events.LinkEnterEvent
2024-03-18T14:18:59,386  INFO EventsManagerImpl:166   org.matsim.api.core.v01.events.handler.LinkLeaveEventHandler
2024-03-18T14:18:59,386  INFO EventsManagerImpl:227     > org.matsim.api.core.v01.events.LinkLeaveEvent
2024-03-18T14:18:59,386  INFO EventsManagerImpl:166   org.matsim.api.core.v01.events.handler.VehicleEntersTrafficEventHandler
2024-03-18T14:18:59,386  INFO EventsManagerImpl:227     > org.matsim.api.core.v01.events.VehicleEntersTrafficEvent
2024-03-18T14:18:59,386  INFO EventsManagerImpl:166   org.matsim.api.core.v01.events.handler.VehicleLeavesTrafficEventHandler
2024-03-18T14:18:59,387  INFO EventsManagerImpl:227     > org.matsim.api.core.v01.events.VehicleLeavesTrafficEvent
2024-03-18T14:18:59,387  INFO EventsManagerImpl:166   org.matsim.core.api.experimental.events.handler.VehicleArrivesAtFacilityEventHandler
2024-03-18T14:18:59,387  INFO EventsManagerImpl:227     > org.matsim.core.api.experimental.events.VehicleArrivesAtFacilityEvent
2024-03-18T14:18:59,387  INFO EventsManagerImpl:166   org.matsim.api.core.v01.events.handler.VehicleAbortsEventHandler
2024-03-18T14:18:59,387  INFO EventsManagerImpl:227     > org.matsim.api.core.v01.events.VehicleAbortsEvent
2024-03-18T14:18:59,387  INFO EventsManagerImpl:176 
2024-03-18T14:18:59,389  INFO Injector:81 === printInjector start ===
2024-03-18T14:18:59,390  INFO Injector:85 org.matsim.api.core.v01.Scenario 
2024-03-18T14:18:59,391  INFO Injector:86   --> provider: ConstantFactory{value=org.matsim.core.scenario.MutableScenario@f238e4f}[Scopes.SINGLETON]
2024-03-18T14:18:59,391  INFO Injector:87   --> source: org.matsim.core.scenario.ScenarioByInstanceModule.install(ScenarioByInstanceModule.java:52)
2024-03-18T14:18:59,391  INFO Injector:89   --> scope: eager singleton
2024-03-18T14:18:59,391  INFO Injector:94   ==full==> InstanceBinding{key=Key[type=org.matsim.api.core.v01.Scenario, annotation=[none]], source=org.matsim.core.scenario.ScenarioByInstanceModule.install(ScenarioByInstanceModule.java:52), instance=org.matsim.core.scenario.MutableScenario@f238e4f}
2024-03-18T14:18:59,391  INFO Injector:96 
2024-03-18T14:18:59,392  INFO Injector:85 org.matsim.pt.transitSchedule.api.TransitSchedule 
2024-03-18T14:18:59,392  INFO Injector:86   --> provider: Key[type=org.matsim.core.scenario.ScenarioByInstanceModule$TransitScheduleProvider, annotation=[none]]
2024-03-18T14:18:59,392  INFO Injector:87   --> source: org.matsim.core.scenario.ScenarioByInstanceModule.install(ScenarioByInstanceModule.java:54)
2024-03-18T14:18:59,392  INFO Injector:89   --> scope: Scopes.NO_SCOPE
2024-03-18T14:18:59,392  INFO Injector:94   ==full==> ProviderKeyBinding{key=Key[type=org.matsim.pt.transitSchedule.api.TransitSchedule, annotation=[none]], source=org.matsim.core.scenario.ScenarioByInstanceModule.install(ScenarioByInstanceModule.java:54), scope=Scopes.NO_SCOPE, provider=Key[type=org.matsim.core.scenario.ScenarioByInstanceModule$TransitScheduleProvider, annotation=[none]]}
2024-03-18T14:18:59,392  INFO Injector:96 
2024-03-18T14:18:59,392  INFO Injector:85 org.matsim.vehicles.Vehicles 
2024-03-18T14:18:59,392  INFO Injector:86   --> provider: Key[type=org.matsim.core.scenario.ScenarioByInstanceModule$TransitVehiclesProvider, annotation=[none]]
2024-03-18T14:18:59,392  INFO Injector:87   --> source: org.matsim.core.scenario.ScenarioByInstanceModule.install(ScenarioByInstanceModule.java:55)
2024-03-18T14:18:59,392  INFO Injector:89   --> scope: Scopes.NO_SCOPE
2024-03-18T14:18:59,392  INFO Injector:94   ==full==> ProviderKeyBinding{key=Key[type=org.matsim.vehicles.Vehicles, annotation=@org.matsim.pt.transitSchedule.api.Transit], source=org.matsim.core.scenario.ScenarioByInstanceModule.install(ScenarioByInstanceModule.java:55), scope=Scopes.NO_SCOPE, provider=Key[type=org.matsim.core.scenario.ScenarioByInstanceModule$TransitVehiclesProvider, annotation=[none]]}
2024-03-18T14:18:59,392  INFO Injector:96 
2024-03-18T14:18:59,392  INFO Injector:85 org.matsim.api.core.v01.population.PopulationFactory 
2024-03-18T14:18:59,395  INFO Injector:86   --> provider: @Provides org.matsim.core.scenario.ScenarioByInstanceModule.providePopulationFactory(ScenarioByInstanceModule.java:68)
2024-03-18T14:18:59,395  INFO Injector:87   --> source: org.matsim.api.core.v01.population.PopulationFactory org.matsim.core.scenario.ScenarioByInstanceModule.providePopulationFactory(org.matsim.api.core.v01.population.Population)
2024-03-18T14:18:59,395  INFO Injector:89   --> scope: Scopes.NO_SCOPE
2024-03-18T14:18:59,395  INFO Injector:94   ==full==> ProviderInstanceBinding{key=Key[type=org.matsim.api.core.v01.population.PopulationFactory, annotation=[none]], source=org.matsim.api.core.v01.population.PopulationFactory org.matsim.core.scenario.ScenarioByInstanceModule.providePopulationFactory(org.matsim.api.core.v01.population.Population), scope=Scopes.NO_SCOPE, provider=@Provides org.matsim.core.scenario.ScenarioByInstanceModule.providePopulationFactory(ScenarioByInstanceModule.java:68)}
2024-03-18T14:18:59,395  INFO Injector:96 
2024-03-18T14:18:59,395  INFO Injector:85 org.matsim.facilities.ActivityFacilities 
2024-03-18T14:18:59,395  INFO Injector:86   --> provider: @Provides org.matsim.core.scenario.ScenarioByInstanceModule.provideActivityFacilities(ScenarioByInstanceModule.java:72)
2024-03-18T14:18:59,395  INFO Injector:87   --> source: org.matsim.facilities.ActivityFacilities org.matsim.core.scenario.ScenarioByInstanceModule.provideActivityFacilities(org.matsim.api.core.v01.Scenario)
2024-03-18T14:18:59,395  INFO Injector:89   --> scope: Scopes.NO_SCOPE
2024-03-18T14:18:59,396  INFO Injector:94   ==full==> ProviderInstanceBinding{key=Key[type=org.matsim.facilities.ActivityFacilities, annotation=[none]], source=org.matsim.facilities.ActivityFacilities org.matsim.core.scenario.ScenarioByInstanceModule.provideActivityFacilities(org.matsim.api.core.v01.Scenario), scope=Scopes.NO_SCOPE, provider=@Provides org.matsim.core.scenario.ScenarioByInstanceModule.provideActivityFacilities(ScenarioByInstanceModule.java:72)}
2024-03-18T14:18:59,396  INFO Injector:96 
2024-03-18T14:18:59,396  INFO Injector:85 org.matsim.vehicles.Vehicles 
2024-03-18T14:18:59,396  INFO Injector:86   --> provider: @Provides org.matsim.core.scenario.ScenarioByInstanceModule.provideVehicles(ScenarioByInstanceModule.java:82)
2024-03-18T14:18:59,396  INFO Injector:87   --> source: org.matsim.vehicles.Vehicles org.matsim.core.scenario.ScenarioByInstanceModule.provideVehicles(org.matsim.api.core.v01.Scenario)
2024-03-18T14:18:59,396  INFO Injector:89   --> scope: Scopes.NO_SCOPE
2024-03-18T14:18:59,396  INFO Injector:94   ==full==> ProviderInstanceBinding{key=Key[type=org.matsim.vehicles.Vehicles, annotation=[none]], source=org.matsim.vehicles.Vehicles org.matsim.core.scenario.ScenarioByInstanceModule.provideVehicles(org.matsim.api.core.v01.Scenario), scope=Scopes.NO_SCOPE, provider=@Provides org.matsim.core.scenario.ScenarioByInstanceModule.provideVehicles(ScenarioByInstanceModule.java:82)}
2024-03-18T14:18:59,396  INFO Injector:96 
2024-03-18T14:18:59,396  INFO Injector:85 org.matsim.lanes.Lanes 
2024-03-18T14:18:59,396  INFO Injector:86   --> provider: @Provides org.matsim.core.scenario.ScenarioByInstanceModule.provideLanes(ScenarioByInstanceModule.java:87)
2024-03-18T14:18:59,396  INFO Injector:87   --> source: org.matsim.lanes.Lanes org.matsim.core.scenario.ScenarioByInstanceModule.provideLanes(org.matsim.api.core.v01.Scenario)
2024-03-18T14:18:59,396  INFO Injector:89   --> scope: Scopes.NO_SCOPE
2024-03-18T14:18:59,396  INFO Injector:94   ==full==> ProviderInstanceBinding{key=Key[type=org.matsim.lanes.Lanes, annotation=[none]], source=org.matsim.lanes.Lanes org.matsim.core.scenario.ScenarioByInstanceModule.provideLanes(org.matsim.api.core.v01.Scenario), scope=Scopes.NO_SCOPE, provider=@Provides org.matsim.core.scenario.ScenarioByInstanceModule.provideLanes(ScenarioByInstanceModule.java:87)}
2024-03-18T14:18:59,396  INFO Injector:96 
2024-03-18T14:18:59,396  INFO Injector:85 org.matsim.api.core.v01.network.Network 
2024-03-18T14:18:59,397  INFO Injector:86   --> provider: @Provides org.matsim.core.scenario.ScenarioByInstanceModule.provideNetwork(ScenarioByInstanceModule.java:60)
2024-03-18T14:18:59,397  INFO Injector:87   --> source: org.matsim.api.core.v01.network.Network org.matsim.core.scenario.ScenarioByInstanceModule.provideNetwork(org.matsim.api.core.v01.Scenario)
2024-03-18T14:18:59,397  INFO Injector:89   --> scope: Scopes.NO_SCOPE
2024-03-18T14:18:59,397  INFO Injector:94   ==full==> ProviderInstanceBinding{key=Key[type=org.matsim.api.core.v01.network.Network, annotation=[none]], source=org.matsim.api.core.v01.network.Network org.matsim.core.scenario.ScenarioByInstanceModule.provideNetwork(org.matsim.api.core.v01.Scenario), scope=Scopes.NO_SCOPE, provider=@Provides org.matsim.core.scenario.ScenarioByInstanceModule.provideNetwork(ScenarioByInstanceModule.java:60)}
2024-03-18T14:18:59,397  INFO Injector:96 
2024-03-18T14:18:59,397  INFO Injector:85 org.matsim.api.core.v01.population.Population 
2024-03-18T14:18:59,397  INFO Injector:86   --> provider: @Provides org.matsim.core.scenario.ScenarioByInstanceModule.providePopulation(ScenarioByInstanceModule.java:64)
2024-03-18T14:18:59,397  INFO Injector:87   --> source: org.matsim.api.core.v01.population.Population org.matsim.core.scenario.ScenarioByInstanceModule.providePopulation(org.matsim.api.core.v01.Scenario)
2024-03-18T14:18:59,397  INFO Injector:89   --> scope: Scopes.NO_SCOPE
2024-03-18T14:18:59,397  INFO Injector:94   ==full==> ProviderInstanceBinding{key=Key[type=org.matsim.api.core.v01.population.Population, annotation=[none]], source=org.matsim.api.core.v01.population.Population org.matsim.core.scenario.ScenarioByInstanceModule.providePopulation(org.matsim.api.core.v01.Scenario), scope=Scopes.NO_SCOPE, provider=@Provides org.matsim.core.scenario.ScenarioByInstanceModule.providePopulation(ScenarioByInstanceModule.java:64)}
2024-03-18T14:18:59,397  INFO Injector:96 
2024-03-18T14:18:59,397  INFO Injector:85 org.matsim.households.Households 
2024-03-18T14:18:59,397  INFO Injector:86   --> provider: @Provides org.matsim.core.scenario.ScenarioByInstanceModule.provideHouseholds(ScenarioByInstanceModule.java:77)
2024-03-18T14:18:59,397  INFO Injector:87   --> source: org.matsim.households.Households org.matsim.core.scenario.ScenarioByInstanceModule.provideHouseholds(org.matsim.api.core.v01.Scenario)
2024-03-18T14:18:59,397  INFO Injector:89   --> scope: Scopes.NO_SCOPE
2024-03-18T14:18:59,398  INFO Injector:94   ==full==> ProviderInstanceBinding{key=Key[type=org.matsim.households.Households, annotation=[none]], source=org.matsim.households.Households org.matsim.core.scenario.ScenarioByInstanceModule.provideHouseholds(org.matsim.api.core.v01.Scenario), scope=Scopes.NO_SCOPE, provider=@Provides org.matsim.core.scenario.ScenarioByInstanceModule.provideHouseholds(ScenarioByInstanceModule.java:77)}
2024-03-18T14:18:59,398  INFO Injector:96 
2024-03-18T14:18:59,398  INFO Injector:85 org.matsim.core.router.MainModeIdentifier 
2024-03-18T14:18:59,398  INFO Injector:86   --> provider: FactoryProxy{key=Key[type=org.matsim.core.router.MainModeIdentifier, annotation=[none]], provider=com.google.inject.internal.ConstructorBindingImpl$Factory@3fe512d2}
2024-03-18T14:18:59,398  INFO Injector:87   --> source: org.eqasim.core.components.EqasimComponentsModule.install(EqasimComponentsModule.java:9)
2024-03-18T14:18:59,398  INFO Injector:89   --> scope: Scopes.NO_SCOPE
2024-03-18T14:18:59,398  INFO Injector:92   --> target: Key[type=org.eqasim.core.components.EqasimMainModeIdentifier, annotation=[none]]
2024-03-18T14:18:59,398  INFO Injector:94   ==full==> LinkedKeyBinding{key=Key[type=org.matsim.core.router.MainModeIdentifier, annotation=[none]], source=org.eqasim.core.components.EqasimComponentsModule.install(EqasimComponentsModule.java:9), scope=Scopes.NO_SCOPE, target=Key[type=org.eqasim.core.components.EqasimMainModeIdentifier, annotation=[none]]}
2024-03-18T14:18:59,398  INFO Injector:96 
2024-03-18T14:18:59,399  INFO Injector:85 org.matsim.core.replanning.PlanStrategy @com.google.inject.name.Named(value="DiscreteModeChoice")
2024-03-18T14:18:59,399  INFO Injector:86   --> provider: Key[type=org.matsim.contribs.discrete_mode_choice.replanning.DiscreteModeChoiceStrategyProvider, annotation=[none]]
2024-03-18T14:18:59,399  INFO Injector:87   --> source: org.matsim.contribs.discrete_mode_choice.modules.DiscreteModeChoiceModule.install(DiscreteModeChoiceModule.java:26)
2024-03-18T14:18:59,399  INFO Injector:89   --> scope: Scopes.NO_SCOPE
2024-03-18T14:18:59,399  INFO Injector:94   ==full==> ProviderKeyBinding{key=Key[type=org.matsim.core.replanning.PlanStrategy, annotation=@com.google.inject.name.Named(value="DiscreteModeChoice")], source=org.matsim.contribs.discrete_mode_choice.modules.DiscreteModeChoiceModule.install(DiscreteModeChoiceModule.java:26), scope=Scopes.NO_SCOPE, provider=Key[type=org.matsim.contribs.discrete_mode_choice.replanning.DiscreteModeChoiceStrategyProvider, annotation=[none]]}
2024-03-18T14:18:59,399  INFO Injector:96 
2024-03-18T14:18:59,399  INFO Injector:85 org.matsim.core.replanning.selectors.PlanSelector<org.matsim.api.core.v01.population.Plan, org.matsim.api.core.v01.population.Person> 
2024-03-18T14:18:59,399  INFO Injector:86   --> provider: FactoryProxy{key=Key[type=org.matsim.core.replanning.selectors.PlanSelector<org.matsim.api.core.v01.population.Plan, org.matsim.api.core.v01.population.Person>, annotation=[none]], provider=com.google.inject.internal.ConstructorBindingImpl$Factory@3fde8f7c}
2024-03-18T14:18:59,399  INFO Injector:87   --> source: org.matsim.contribs.discrete_mode_choice.modules.DiscreteModeChoiceModule.install(DiscreteModeChoiceModule.java:29)
2024-03-18T14:18:59,399  INFO Injector:89   --> scope: Scopes.NO_SCOPE
2024-03-18T14:18:59,399  INFO Injector:92   --> target: Key[type=org.matsim.contribs.discrete_mode_choice.replanning.NonSelectedPlanSelector, annotation=[none]]
2024-03-18T14:18:59,399  INFO Injector:94   ==full==> LinkedKeyBinding{key=Key[type=org.matsim.core.replanning.selectors.PlanSelector<org.matsim.api.core.v01.population.Plan, org.matsim.api.core.v01.population.Person>, annotation=[none]], source=org.matsim.contribs.discrete_mode_choice.modules.DiscreteModeChoiceModule.install(DiscreteModeChoiceModule.java:29), scope=Scopes.NO_SCOPE, target=Key[type=org.matsim.contribs.discrete_mode_choice.replanning.NonSelectedPlanSelector, annotation=[none]]}
2024-03-18T14:18:59,399  INFO Injector:96 
2024-03-18T14:18:59,400  INFO Injector:85 org.matsim.core.controler.listener.ControlerListener @com.google.inject.internal.Element(setName=,uniqueId=143, type=MULTIBINDER, keyType=)
2024-03-18T14:18:59,400  INFO Injector:86   --> provider: FactoryProxy{key=Key[type=org.matsim.core.controler.listener.ControlerListener, annotation=@com.google.inject.internal.Element(setName=,uniqueId=143, type=MULTIBINDER, keyType=)], provider=com.google.inject.internal.ConstructorBindingImpl$Factory@11d86b9d}
2024-03-18T14:18:59,400  INFO Injector:87   --> source: org.matsim.contribs.discrete_mode_choice.modules.DiscreteModeChoiceModule.install(DiscreteModeChoiceModule.java:33)
2024-03-18T14:18:59,400  INFO Injector:89   --> scope: Scopes.NO_SCOPE
2024-03-18T14:18:59,400  INFO Injector:92   --> target: Key[type=org.matsim.contribs.discrete_mode_choice.modules.utils.ModeChoiceInTheLoopChecker, annotation=[none]]
2024-03-18T14:18:59,400  INFO Injector:94   ==full==> LinkedKeyBinding{key=Key[type=org.matsim.core.controler.listener.ControlerListener, annotation=@com.google.inject.internal.Element(setName=,uniqueId=143, type=MULTIBINDER, keyType=)], source=org.matsim.contribs.discrete_mode_choice.modules.DiscreteModeChoiceModule.install(DiscreteModeChoiceModule.java:33), scope=Scopes.NO_SCOPE, target=Key[type=org.matsim.contribs.discrete_mode_choice.modules.utils.ModeChoiceInTheLoopChecker, annotation=[none]]}
2024-03-18T14:18:59,400  INFO Injector:96 
2024-03-18T14:18:59,400  INFO Injector:85 org.matsim.contribs.discrete_mode_choice.model.mode_availability.ModeAvailability @com.google.inject.internal.Element(setName=,uniqueId=144, type=MAPBINDER, keyType=java.lang.String)
2024-03-18T14:18:59,401  INFO Injector:86   --> provider: FactoryProxy{key=Key[type=org.matsim.contribs.discrete_mode_choice.model.mode_availability.ModeAvailability, annotation=@com.google.inject.internal.Element(setName=,uniqueId=144, type=MAPBINDER, keyType=java.lang.String)], provider=@Provides org.matsim.contribs.discrete_mode_choice.modules.ModeAvailabilityModule.provideDefaultModeAvailability(ModeAvailabilityModule.java:36)}
2024-03-18T14:18:59,401  INFO Injector:87   --> source: org.matsim.contribs.discrete_mode_choice.modules.AbstractDiscreteModeChoiceExtension.bindModeAvailability(AbstractDiscreteModeChoiceExtension.java:90)
2024-03-18T14:18:59,401  INFO Injector:89   --> scope: Scopes.NO_SCOPE
2024-03-18T14:18:59,401  INFO Injector:92   --> target: Key[type=org.matsim.contribs.discrete_mode_choice.model.mode_availability.DefaultModeAvailability, annotation=[none]]
2024-03-18T14:18:59,401  INFO Injector:94   ==full==> LinkedKeyBinding{key=Key[type=org.matsim.contribs.discrete_mode_choice.model.mode_availability.ModeAvailability, annotation=@com.google.inject.internal.Element(setName=,uniqueId=144, type=MAPBINDER, keyType=java.lang.String)], source=org.matsim.contribs.discrete_mode_choice.modules.AbstractDiscreteModeChoiceExtension.bindModeAvailability(AbstractDiscreteModeChoiceExtension.java:90), scope=Scopes.NO_SCOPE, target=Key[type=org.matsim.contribs.discrete_mode_choice.model.mode_availability.DefaultModeAvailability, annotation=[none]]}
2024-03-18T14:18:59,401  INFO Injector:96 
2024-03-18T14:18:59,401  INFO Injector:85 org.matsim.contribs.discrete_mode_choice.model.mode_availability.ModeAvailability @com.google.inject.internal.Element(setName=,uniqueId=146, type=MAPBINDER, keyType=java.lang.String)
2024-03-18T14:18:59,401  INFO Injector:86   --> provider: FactoryProxy{key=Key[type=org.matsim.contribs.discrete_mode_choice.model.mode_availability.ModeAvailability, annotation=@com.google.inject.internal.Element(setName=,uniqueId=146, type=MAPBINDER, keyType=java.lang.String)], provider=@Provides org.matsim.contribs.discrete_mode_choice.modules.ModeAvailabilityModule.provideCarModeAvailability(ModeAvailabilityModule.java:42)}
2024-03-18T14:18:59,401  INFO Injector:87   --> source: org.matsim.contribs.discrete_mode_choice.modules.AbstractDiscreteModeChoiceExtension.bindModeAvailability(AbstractDiscreteModeChoiceExtension.java:90)
2024-03-18T14:18:59,402  INFO Injector:89   --> scope: Scopes.NO_SCOPE
2024-03-18T14:18:59,402  INFO Injector:92   --> target: Key[type=org.matsim.contribs.discrete_mode_choice.model.mode_availability.CarModeAvailability, annotation=[none]]
2024-03-18T14:18:59,402  INFO Injector:94   ==full==> LinkedKeyBinding{key=Key[type=org.matsim.contribs.discrete_mode_choice.model.mode_availability.ModeAvailability, annotation=@com.google.inject.internal.Element(setName=,uniqueId=146, type=MAPBINDER, keyType=java.lang.String)], source=org.matsim.contribs.discrete_mode_choice.modules.AbstractDiscreteModeChoiceExtension.bindModeAvailability(AbstractDiscreteModeChoiceExtension.java:90), scope=Scopes.NO_SCOPE, target=Key[type=org.matsim.contribs.discrete_mode_choice.model.mode_availability.CarModeAvailability, annotation=[none]]}
2024-03-18T14:18:59,402  INFO Injector:96 
2024-03-18T14:18:59,402  INFO Injector:85 org.matsim.contribs.discrete_mode_choice.model.mode_availability.DefaultModeAvailability 
2024-03-18T14:18:59,402  INFO Injector:86   --> provider: @Provides org.matsim.contribs.discrete_mode_choice.modules.ModeAvailabilityModule.provideDefaultModeAvailability(ModeAvailabilityModule.java:36)
2024-03-18T14:18:59,402  INFO Injector:87   --> source: public org.matsim.contribs.discrete_mode_choice.model.mode_availability.DefaultModeAvailability org.matsim.contribs.discrete_mode_choice.modules.ModeAvailabilityModule.provideDefaultModeAvailability(org.matsim.contribs.discrete_mode_choice.modules.config.DiscreteModeChoiceConfigGroup)
2024-03-18T14:18:59,402  INFO Injector:89   --> scope: Scopes.NO_SCOPE
2024-03-18T14:18:59,402  INFO Injector:94   ==full==> ProviderInstanceBinding{key=Key[type=org.matsim.contribs.discrete_mode_choice.model.mode_availability.DefaultModeAvailability, annotation=[none]], source=public org.matsim.contribs.discrete_mode_choice.model.mode_availability.DefaultModeAvailability org.matsim.contribs.discrete_mode_choice.modules.ModeAvailabilityModule.provideDefaultModeAvailability(org.matsim.contribs.discrete_mode_choice.modules.config.DiscreteModeChoiceConfigGroup), scope=Scopes.NO_SCOPE, provider=@Provides org.matsim.contribs.discrete_mode_choice.modules.ModeAvailabilityModule.provideDefaultModeAvailability(ModeAvailabilityModule.java:36)}
2024-03-18T14:18:59,402  INFO Injector:96 
2024-03-18T14:18:59,402  INFO Injector:85 org.matsim.contribs.discrete_mode_choice.model.mode_availability.CarModeAvailability 
2024-03-18T14:18:59,402  INFO Injector:86   --> provider: @Provides org.matsim.contribs.discrete_mode_choice.modules.ModeAvailabilityModule.provideCarModeAvailability(ModeAvailabilityModule.java:42)
2024-03-18T14:18:59,402  INFO Injector:87   --> source: public org.matsim.contribs.discrete_mode_choice.model.mode_availability.CarModeAvailability org.matsim.contribs.discrete_mode_choice.modules.ModeAvailabilityModule.provideCarModeAvailability(org.matsim.contribs.discrete_mode_choice.modules.config.DiscreteModeChoiceConfigGroup)
2024-03-18T14:18:59,402  INFO Injector:89   --> scope: Scopes.NO_SCOPE
2024-03-18T14:18:59,402  INFO Injector:94   ==full==> ProviderInstanceBinding{key=Key[type=org.matsim.contribs.discrete_mode_choice.model.mode_availability.CarModeAvailability, annotation=[none]], source=public org.matsim.contribs.discrete_mode_choice.model.mode_availability.CarModeAvailability org.matsim.contribs.discrete_mode_choice.modules.ModeAvailabilityModule.provideCarModeAvailability(org.matsim.contribs.discrete_mode_choice.modules.config.DiscreteModeChoiceConfigGroup), scope=Scopes.NO_SCOPE, provider=@Provides org.matsim.contribs.discrete_mode_choice.modules.ModeAvailabilityModule.provideCarModeAvailability(ModeAvailabilityModule.java:42)}
2024-03-18T14:18:59,403  INFO Injector:96 
2024-03-18T14:18:59,403  INFO Injector:85 org.matsim.contribs.discrete_mode_choice.model.mode_availability.ModeAvailability 
2024-03-18T14:18:59,403  INFO Injector:86   --> provider: @Provides org.matsim.contribs.discrete_mode_choice.modules.ModeAvailabilityModule.provideModeAvailability(ModeAvailabilityModule.java:49)
2024-03-18T14:18:59,403  INFO Injector:87   --> source: public org.matsim.contribs.discrete_mode_choice.model.mode_availability.ModeAvailability org.matsim.contribs.discrete_mode_choice.modules.ModeAvailabilityModule.provideModeAvailability(org.matsim.contribs.discrete_mode_choice.modules.config.DiscreteModeChoiceConfigGroup,java.util.Map)
2024-03-18T14:18:59,403  INFO Injector:89   --> scope: Scopes.NO_SCOPE
2024-03-18T14:18:59,403  INFO Injector:94   ==full==> ProviderInstanceBinding{key=Key[type=org.matsim.contribs.discrete_mode_choice.model.mode_availability.ModeAvailability, annotation=[none]], source=public org.matsim.contribs.discrete_mode_choice.model.mode_availability.ModeAvailability org.matsim.contribs.discrete_mode_choice.modules.ModeAvailabilityModule.provideModeAvailability(org.matsim.contribs.discrete_mode_choice.modules.config.DiscreteModeChoiceConfigGroup,java.util.Map), scope=Scopes.NO_SCOPE, provider=@Provides org.matsim.contribs.discrete_mode_choice.modules.ModeAvailabilityModule.provideModeAvailability(ModeAvailabilityModule.java:49)}
2024-03-18T14:18:59,403  INFO Injector:96 
2024-03-18T14:18:59,403  INFO Injector:85 org.matsim.contribs.discrete_mode_choice.model.trip_based.TripEstimator @com.google.inject.internal.Element(setName=,uniqueId=148, type=MAPBINDER, keyType=java.lang.String)
2024-03-18T14:18:59,404  INFO Injector:86   --> provider: FactoryProxy{key=Key[type=org.matsim.contribs.discrete_mode_choice.model.trip_based.TripEstimator, annotation=@com.google.inject.internal.Element(setName=,uniqueId=148, type=MAPBINDER, keyType=java.lang.String)], provider=@Provides org.matsim.contribs.discrete_mode_choice.modules.EstimatorModule.provideMATSimTripScoringEstimator(EstimatorModule.java:112)}
2024-03-18T14:18:59,404  INFO Injector:87   --> source: org.matsim.contribs.discrete_mode_choice.modules.AbstractDiscreteModeChoiceExtension.bindTripEstimator(AbstractDiscreteModeChoiceExtension.java:66)
2024-03-18T14:18:59,404  INFO Injector:89   --> scope: Scopes.NO_SCOPE
2024-03-18T14:18:59,404  INFO Injector:92   --> target: Key[type=org.matsim.contribs.discrete_mode_choice.components.estimators.MATSimTripScoringEstimator, annotation=[none]]
2024-03-18T14:18:59,404  INFO Injector:94   ==full==> LinkedKeyBinding{key=Key[type=org.matsim.contribs.discrete_mode_choice.model.trip_based.TripEstimator, annotation=@com.google.inject.internal.Element(setName=,uniqueId=148, type=MAPBINDER, keyType=java.lang.String)], source=org.matsim.contribs.discrete_mode_choice.modules.AbstractDiscreteModeChoiceExtension.bindTripEstimator(AbstractDiscreteModeChoiceExtension.java:66), scope=Scopes.NO_SCOPE, target=Key[type=org.matsim.contribs.discrete_mode_choice.components.estimators.MATSimTripScoringEstimator, annotation=[none]]}
2024-03-18T14:18:59,404  INFO Injector:96 
2024-03-18T14:18:59,404  INFO Injector:85 org.matsim.contribs.discrete_mode_choice.model.trip_based.TripEstimator @com.google.inject.internal.Element(setName=,uniqueId=150, type=MAPBINDER, keyType=java.lang.String)
2024-03-18T14:18:59,404  INFO Injector:86   --> provider: FactoryProxy{key=Key[type=org.matsim.contribs.discrete_mode_choice.model.trip_based.TripEstimator, annotation=@com.google.inject.internal.Element(setName=,uniqueId=150, type=MAPBINDER, keyType=java.lang.String)], provider=@Provides org.matsim.contribs.discrete_mode_choice.modules.EstimatorModule.provideNullTripEstimator(EstimatorModule.java:92)[Scopes.SINGLETON]}
2024-03-18T14:18:59,405  INFO Injector:87   --> source: org.matsim.contribs.discrete_mode_choice.modules.AbstractDiscreteModeChoiceExtension.bindTripEstimator(AbstractDiscreteModeChoiceExtension.java:66)
2024-03-18T14:18:59,405  INFO Injector:89   --> scope: Scopes.NO_SCOPE
2024-03-18T14:18:59,405  INFO Injector:92   --> target: Key[type=org.matsim.contribs.discrete_mode_choice.components.estimators.UniformTripEstimator, annotation=[none]]
2024-03-18T14:18:59,405  INFO Injector:94   ==full==> LinkedKeyBinding{key=Key[type=org.matsim.contribs.discrete_mode_choice.model.trip_based.TripEstimator, annotation=@com.google.inject.internal.Element(setName=,uniqueId=150, type=MAPBINDER, keyType=java.lang.String)], source=org.matsim.contribs.discrete_mode_choice.modules.AbstractDiscreteModeChoiceExtension.bindTripEstimator(AbstractDiscreteModeChoiceExtension.java:66), scope=Scopes.NO_SCOPE, target=Key[type=org.matsim.contribs.discrete_mode_choice.components.estimators.UniformTripEstimator, annotation=[none]]}
2024-03-18T14:18:59,405  INFO Injector:96 
2024-03-18T14:18:59,405  INFO Injector:85 org.matsim.contribs.discrete_mode_choice.model.tour_based.TourEstimator @com.google.inject.internal.Element(setName=,uniqueId=152, type=MAPBINDER, keyType=java.lang.String)
2024-03-18T14:18:59,405  INFO Injector:86   --> provider: FactoryProxy{key=Key[type=org.matsim.contribs.discrete_mode_choice.model.tour_based.TourEstimator, annotation=@com.google.inject.internal.Element(setName=,uniqueId=152, type=MAPBINDER, keyType=java.lang.String)], provider=@Provides org.matsim.contribs.discrete_mode_choice.modules.EstimatorModule.provideMATSimDayScoringEstimator(EstimatorModule.java:121)}
2024-03-18T14:18:59,405  INFO Injector:87   --> source: org.matsim.contribs.discrete_mode_choice.modules.AbstractDiscreteModeChoiceExtension.bindTourEstimator(AbstractDiscreteModeChoiceExtension.java:62)
2024-03-18T14:18:59,405  INFO Injector:89   --> scope: Scopes.NO_SCOPE
2024-03-18T14:18:59,405  INFO Injector:92   --> target: Key[type=org.matsim.contribs.discrete_mode_choice.components.estimators.MATSimDayScoringEstimator, annotation=[none]]
2024-03-18T14:18:59,405  INFO Injector:94   ==full==> LinkedKeyBinding{key=Key[type=org.matsim.contribs.discrete_mode_choice.model.tour_based.TourEstimator, annotation=@com.google.inject.internal.Element(setName=,uniqueId=152, type=MAPBINDER, keyType=java.lang.String)], source=org.matsim.contribs.discrete_mode_choice.modules.AbstractDiscreteModeChoiceExtension.bindTourEstimator(AbstractDiscreteModeChoiceExtension.java:62), scope=Scopes.NO_SCOPE, target=Key[type=org.matsim.contribs.discrete_mode_choice.components.estimators.MATSimDayScoringEstimator, annotation=[none]]}
2024-03-18T14:18:59,405  INFO Injector:96 
2024-03-18T14:18:59,405  INFO Injector:85 org.matsim.contribs.discrete_mode_choice.model.tour_based.TourEstimator @com.google.inject.internal.Element(setName=,uniqueId=154, type=MAPBINDER, keyType=java.lang.String)
2024-03-18T14:18:59,405  INFO Injector:86   --> provider: FactoryProxy{key=Key[type=org.matsim.contribs.discrete_mode_choice.model.tour_based.TourEstimator, annotation=@com.google.inject.internal.Element(setName=,uniqueId=154, type=MAPBINDER, keyType=java.lang.String)], provider=@Provides org.matsim.contribs.discrete_mode_choice.modules.EstimatorModule.provideCumulativeTourEstimator(EstimatorModule.java:128)}
2024-03-18T14:18:59,405  INFO Injector:87   --> source: org.matsim.contribs.discrete_mode_choice.modules.AbstractDiscreteModeChoiceExtension.bindTourEstimator(AbstractDiscreteModeChoiceExtension.java:62)
2024-03-18T14:18:59,405  INFO Injector:89   --> scope: Scopes.NO_SCOPE
2024-03-18T14:18:59,406  INFO Injector:92   --> target: Key[type=org.matsim.contribs.discrete_mode_choice.components.estimators.CumulativeTourEstimator, annotation=[none]]
2024-03-18T14:18:59,406  INFO Injector:94   ==full==> LinkedKeyBinding{key=Key[type=org.matsim.contribs.discrete_mode_choice.model.tour_based.TourEstimator, annotation=@com.google.inject.internal.Element(setName=,uniqueId=154, type=MAPBINDER, keyType=java.lang.String)], source=org.matsim.contribs.discrete_mode_choice.modules.AbstractDiscreteModeChoiceExtension.bindTourEstimator(AbstractDiscreteModeChoiceExtension.java:62), scope=Scopes.NO_SCOPE, target=Key[type=org.matsim.contribs.discrete_mode_choice.components.estimators.CumulativeTourEstimator, annotation=[none]]}
2024-03-18T14:18:59,406  INFO Injector:96 
2024-03-18T14:18:59,406  INFO Injector:85 org.matsim.contribs.discrete_mode_choice.model.tour_based.TourEstimator @com.google.inject.internal.Element(setName=,uniqueId=156, type=MAPBINDER, keyType=java.lang.String)
2024-03-18T14:18:59,406  INFO Injector:86   --> provider: FactoryProxy{key=Key[type=org.matsim.contribs.discrete_mode_choice.model.tour_based.TourEstimator, annotation=@com.google.inject.internal.Element(setName=,uniqueId=156, type=MAPBINDER, keyType=java.lang.String)], provider=@Provides org.matsim.contribs.discrete_mode_choice.modules.EstimatorModule.proideNullTourEstimator(EstimatorModule.java:98)[Scopes.SINGLETON]}
2024-03-18T14:18:59,406  INFO Injector:87   --> source: org.matsim.contribs.discrete_mode_choice.modules.AbstractDiscreteModeChoiceExtension.bindTourEstimator(AbstractDiscreteModeChoiceExtension.java:62)
2024-03-18T14:18:59,406  INFO Injector:89   --> scope: Scopes.NO_SCOPE
2024-03-18T14:18:59,406  INFO Injector:92   --> target: Key[type=org.matsim.contribs.discrete_mode_choice.components.estimators.UniformTourEstimator, annotation=[none]]
2024-03-18T14:18:59,406  INFO Injector:94   ==full==> LinkedKeyBinding{key=Key[type=org.matsim.contribs.discrete_mode_choice.model.tour_based.TourEstimator, annotation=@com.google.inject.internal.Element(setName=,uniqueId=156, type=MAPBINDER, keyType=java.lang.String)], source=org.matsim.contribs.discrete_mode_choice.modules.AbstractDiscreteModeChoiceExtension.bindTourEstimator(AbstractDiscreteModeChoiceExtension.java:62), scope=Scopes.NO_SCOPE, target=Key[type=org.matsim.contribs.discrete_mode_choice.components.estimators.UniformTourEstimator, annotation=[none]]}
2024-03-18T14:18:59,406  INFO Injector:96 
2024-03-18T14:18:59,406  INFO Injector:85 org.matsim.contribs.discrete_mode_choice.components.utils.PTWaitingTimeEstimator 
2024-03-18T14:18:59,407  INFO Injector:86   --> provider: FactoryProxy{key=Key[type=org.matsim.contribs.discrete_mode_choice.components.utils.PTWaitingTimeEstimator, annotation=[none]], provider=@Provides org.matsim.contribs.discrete_mode_choice.modules.utils.ScheduleWaitingTimeEstimatorModule.provideScheduleWaitingTimeEstimator(ScheduleWaitingTimeEstimatorModule.java:28)[Scopes.SINGLETON]}
2024-03-18T14:18:59,407  INFO Injector:87   --> source: org.matsim.contribs.discrete_mode_choice.modules.utils.ScheduleWaitingTimeEstimatorModule.configure(ScheduleWaitingTimeEstimatorModule.java:22)
2024-03-18T14:18:59,407  INFO Injector:89   --> scope: Scopes.NO_SCOPE
2024-03-18T14:18:59,407  INFO Injector:92   --> target: Key[type=org.matsim.contribs.discrete_mode_choice.components.utils.ScheduleWaitingTimeEstimator, annotation=[none]]
2024-03-18T14:18:59,407  INFO Injector:94   ==full==> LinkedKeyBinding{key=Key[type=org.matsim.contribs.discrete_mode_choice.components.utils.PTWaitingTimeEstimator, annotation=[none]], source=org.matsim.contribs.discrete_mode_choice.modules.utils.ScheduleWaitingTimeEstimatorModule.configure(ScheduleWaitingTimeEstimatorModule.java:22), scope=Scopes.NO_SCOPE, target=Key[type=org.matsim.contribs.discrete_mode_choice.components.utils.ScheduleWaitingTimeEstimator, annotation=[none]]}
2024-03-18T14:18:59,407  INFO Injector:96 
2024-03-18T14:18:59,407  INFO Injector:85 org.matsim.contribs.discrete_mode_choice.components.utils.ScheduleWaitingTimeEstimator 
2024-03-18T14:18:59,407  INFO Injector:86   --> provider: @Provides org.matsim.contribs.discrete_mode_choice.modules.utils.ScheduleWaitingTimeEstimatorModule.provideScheduleWaitingTimeEstimator(ScheduleWaitingTimeEstimatorModule.java:28)[Scopes.SINGLETON]
2024-03-18T14:18:59,407  INFO Injector:87   --> source: public org.matsim.contribs.discrete_mode_choice.components.utils.ScheduleWaitingTimeEstimator org.matsim.contribs.discrete_mode_choice.modules.utils.ScheduleWaitingTimeEstimatorModule.provideScheduleWaitingTimeEstimator(org.matsim.pt.transitSchedule.api.TransitSchedule)
2024-03-18T14:18:59,407  INFO Injector:89   --> scope: Scopes.SINGLETON
2024-03-18T14:18:59,407  INFO Injector:94   ==full==> ProviderInstanceBinding{key=Key[type=org.matsim.contribs.discrete_mode_choice.components.utils.ScheduleWaitingTimeEstimator, annotation=[none]], source=public org.matsim.contribs.discrete_mode_choice.components.utils.ScheduleWaitingTimeEstimator org.matsim.contribs.discrete_mode_choice.modules.utils.ScheduleWaitingTimeEstimatorModule.provideScheduleWaitingTimeEstimator(org.matsim.pt.transitSchedule.api.TransitSchedule), scope=Scopes.SINGLETON, provider=@Provides org.matsim.contribs.discrete_mode_choice.modules.utils.ScheduleWaitingTimeEstimatorModule.provideScheduleWaitingTimeEstimator(ScheduleWaitingTimeEstimatorModule.java:28)}
2024-03-18T14:18:59,407  INFO Injector:96 
2024-03-18T14:18:59,407  INFO Injector:85 org.matsim.contribs.discrete_mode_choice.model.tour_based.TourEstimator 
2024-03-18T14:18:59,408  INFO Injector:86   --> provider: @Provides org.matsim.contribs.discrete_mode_choice.modules.EstimatorModule.provideTourEstimator(EstimatorModule.java:66)
2024-03-18T14:18:59,408  INFO Injector:87   --> source: public org.matsim.contribs.discrete_mode_choice.model.tour_based.TourEstimator org.matsim.contribs.discrete_mode_choice.modules.EstimatorModule.provideTourEstimator(org.matsim.contribs.discrete_mode_choice.modules.config.DiscreteModeChoiceConfigGroup,java.util.Map)
2024-03-18T14:18:59,408  INFO Injector:89   --> scope: Scopes.NO_SCOPE
2024-03-18T14:18:59,408  INFO Injector:94   ==full==> ProviderInstanceBinding{key=Key[type=org.matsim.contribs.discrete_mode_choice.model.tour_based.TourEstimator, annotation=[none]], source=public org.matsim.contribs.discrete_mode_choice.model.tour_based.TourEstimator org.matsim.contribs.discrete_mode_choice.modules.EstimatorModule.provideTourEstimator(org.matsim.contribs.discrete_mode_choice.modules.config.DiscreteModeChoiceConfigGroup,java.util.Map), scope=Scopes.NO_SCOPE, provider=@Provides org.matsim.contribs.discrete_mode_choice.modules.EstimatorModule.provideTourEstimator(EstimatorModule.java:66)}
2024-03-18T14:18:59,408  INFO Injector:96 
2024-03-18T14:18:59,408  INFO Injector:85 org.matsim.contribs.discrete_mode_choice.model.trip_based.TripEstimator 
2024-03-18T14:18:59,408  INFO Injector:86   --> provider: @Provides org.matsim.contribs.discrete_mode_choice.modules.EstimatorModule.provideTripEstimator(EstimatorModule.java:79)
2024-03-18T14:18:59,408  INFO Injector:87   --> source: public org.matsim.contribs.discrete_mode_choice.model.trip_based.TripEstimator org.matsim.contribs.discrete_mode_choice.modules.EstimatorModule.provideTripEstimator(org.matsim.contribs.discrete_mode_choice.modules.config.DiscreteModeChoiceConfigGroup,java.util.Map)
2024-03-18T14:18:59,408  INFO Injector:89   --> scope: Scopes.NO_SCOPE
2024-03-18T14:18:59,408  INFO Injector:94   ==full==> ProviderInstanceBinding{key=Key[type=org.matsim.contribs.discrete_mode_choice.model.trip_based.TripEstimator, annotation=[none]], source=public org.matsim.contribs.discrete_mode_choice.model.trip_based.TripEstimator org.matsim.contribs.discrete_mode_choice.modules.EstimatorModule.provideTripEstimator(org.matsim.contribs.discrete_mode_choice.modules.config.DiscreteModeChoiceConfigGroup,java.util.Map), scope=Scopes.NO_SCOPE, provider=@Provides org.matsim.contribs.discrete_mode_choice.modules.EstimatorModule.provideTripEstimator(EstimatorModule.java:79)}
2024-03-18T14:18:59,408  INFO Injector:96 
2024-03-18T14:18:59,408  INFO Injector:85 org.matsim.contribs.discrete_mode_choice.components.estimators.UniformTripEstimator 
2024-03-18T14:18:59,408  INFO Injector:86   --> provider: @Provides org.matsim.contribs.discrete_mode_choice.modules.EstimatorModule.provideNullTripEstimator(EstimatorModule.java:92)[Scopes.SINGLETON]
2024-03-18T14:18:59,408  INFO Injector:87   --> source: public org.matsim.contribs.discrete_mode_choice.components.estimators.UniformTripEstimator org.matsim.contribs.discrete_mode_choice.modules.EstimatorModule.provideNullTripEstimator(org.matsim.contribs.discrete_mode_choice.replanning.time_interpreter.TimeInterpreter$Factory)
2024-03-18T14:18:59,409  INFO Injector:89   --> scope: Scopes.SINGLETON
2024-03-18T14:18:59,409  INFO Injector:94   ==full==> ProviderInstanceBinding{key=Key[type=org.matsim.contribs.discrete_mode_choice.components.estimators.UniformTripEstimator, annotation=[none]], source=public org.matsim.contribs.discrete_mode_choice.components.estimators.UniformTripEstimator org.matsim.contribs.discrete_mode_choice.modules.EstimatorModule.provideNullTripEstimator(org.matsim.contribs.discrete_mode_choice.replanning.time_interpreter.TimeInterpreter$Factory), scope=Scopes.SINGLETON, provider=@Provides org.matsim.contribs.discrete_mode_choice.modules.EstimatorModule.provideNullTripEstimator(EstimatorModule.java:92)}
2024-03-18T14:18:59,409  INFO Injector:96 
2024-03-18T14:18:59,409  INFO Injector:85 org.matsim.contribs.discrete_mode_choice.components.estimators.UniformTourEstimator 
2024-03-18T14:18:59,409  INFO Injector:86   --> provider: @Provides org.matsim.contribs.discrete_mode_choice.modules.EstimatorModule.proideNullTourEstimator(EstimatorModule.java:98)[Scopes.SINGLETON]
2024-03-18T14:18:59,409  INFO Injector:87   --> source: public org.matsim.contribs.discrete_mode_choice.components.estimators.UniformTourEstimator org.matsim.contribs.discrete_mode_choice.modules.EstimatorModule.proideNullTourEstimator(org.matsim.contribs.discrete_mode_choice.replanning.time_interpreter.TimeInterpreter$Factory)
2024-03-18T14:18:59,409  INFO Injector:89   --> scope: Scopes.SINGLETON
2024-03-18T14:18:59,409  INFO Injector:94   ==full==> ProviderInstanceBinding{key=Key[type=org.matsim.contribs.discrete_mode_choice.components.estimators.UniformTourEstimator, annotation=[none]], source=public org.matsim.contribs.discrete_mode_choice.components.estimators.UniformTourEstimator org.matsim.contribs.discrete_mode_choice.modules.EstimatorModule.proideNullTourEstimator(org.matsim.contribs.discrete_mode_choice.replanning.time_interpreter.TimeInterpreter$Factory), scope=Scopes.SINGLETON, provider=@Provides org.matsim.contribs.discrete_mode_choice.modules.EstimatorModule.proideNullTourEstimator(EstimatorModule.java:98)}
2024-03-18T14:18:59,409  INFO Injector:96 
2024-03-18T14:18:59,409  INFO Injector:85 org.matsim.contribs.discrete_mode_choice.components.utils.NullWaitingTimeEstimator 
2024-03-18T14:18:59,409  INFO Injector:86   --> provider: @Provides org.matsim.contribs.discrete_mode_choice.modules.EstimatorModule.provideNullWaitingTimeEstimator(EstimatorModule.java:104)[Scopes.SINGLETON]
2024-03-18T14:18:59,409  INFO Injector:87   --> source: public org.matsim.contribs.discrete_mode_choice.components.utils.NullWaitingTimeEstimator org.matsim.contribs.discrete_mode_choice.modules.EstimatorModule.provideNullWaitingTimeEstimator()
2024-03-18T14:18:59,409  INFO Injector:89   --> scope: Scopes.SINGLETON
2024-03-18T14:18:59,410  INFO Injector:94   ==full==> ProviderInstanceBinding{key=Key[type=org.matsim.contribs.discrete_mode_choice.components.utils.NullWaitingTimeEstimator, annotation=[none]], source=public org.matsim.contribs.discrete_mode_choice.components.utils.NullWaitingTimeEstimator org.matsim.contribs.discrete_mode_choice.modules.EstimatorModule.provideNullWaitingTimeEstimator(), scope=Scopes.SINGLETON, provider=@Provides org.matsim.contribs.discrete_mode_choice.modules.EstimatorModule.provideNullWaitingTimeEstimator(EstimatorModule.java:104)}
2024-03-18T14:18:59,410  INFO Injector:96 
2024-03-18T14:18:59,410  INFO Injector:85 org.matsim.contribs.discrete_mode_choice.components.estimators.MATSimTripScoringEstimator 
2024-03-18T14:18:59,410  INFO Injector:86   --> provider: @Provides org.matsim.contribs.discrete_mode_choice.modules.EstimatorModule.provideMATSimTripScoringEstimator(EstimatorModule.java:112)
2024-03-18T14:18:59,410  INFO Injector:87   --> source: public org.matsim.contribs.discrete_mode_choice.components.estimators.MATSimTripScoringEstimator org.matsim.contribs.discrete_mode_choice.modules.EstimatorModule.provideMATSimTripScoringEstimator(org.matsim.facilities.ActivityFacilities,org.matsim.core.router.TripRouter,org.matsim.contribs.discrete_mode_choice.components.utils.PTWaitingTimeEstimator,org.matsim.core.scoring.functions.ScoringParametersForPerson,org.matsim.contribs.discrete_mode_choice.modules.config.DiscreteModeChoiceConfigGroup,org.matsim.contribs.discrete_mode_choice.replanning.time_interpreter.TimeInterpreter$Factory)
2024-03-18T14:18:59,410  INFO Injector:89   --> scope: Scopes.NO_SCOPE
2024-03-18T14:18:59,410  INFO Injector:94   ==full==> ProviderInstanceBinding{key=Key[type=org.matsim.contribs.discrete_mode_choice.components.estimators.MATSimTripScoringEstimator, annotation=[none]], source=public org.matsim.contribs.discrete_mode_choice.components.estimators.MATSimTripScoringEstimator org.matsim.contribs.discrete_mode_choice.modules.EstimatorModule.provideMATSimTripScoringEstimator(org.matsim.facilities.ActivityFacilities,org.matsim.core.router.TripRouter,org.matsim.contribs.discrete_mode_choice.components.utils.PTWaitingTimeEstimator,org.matsim.core.scoring.functions.ScoringParametersForPerson,org.matsim.contribs.discrete_mode_choice.modules.config.DiscreteModeChoiceConfigGroup,org.matsim.contribs.discrete_mode_choice.replanning.time_interpreter.TimeInterpreter$Factory), scope=Scopes.NO_SCOPE, provider=@Provides org.matsim.contribs.discrete_mode_choice.modules.EstimatorModule.provideMATSimTripScoringEstimator(EstimatorModule.java:112)}
2024-03-18T14:18:59,410  INFO Injector:96 
2024-03-18T14:18:59,410  INFO Injector:85 org.matsim.contribs.discrete_mode_choice.components.estimators.MATSimDayScoringEstimator 
2024-03-18T14:18:59,410  INFO Injector:86   --> provider: @Provides org.matsim.contribs.discrete_mode_choice.modules.EstimatorModule.provideMATSimDayScoringEstimator(EstimatorModule.java:121)
2024-03-18T14:18:59,410  INFO Injector:87   --> source: public org.matsim.contribs.discrete_mode_choice.components.estimators.MATSimDayScoringEstimator org.matsim.contribs.discrete_mode_choice.modules.EstimatorModule.provideMATSimDayScoringEstimator(org.matsim.contribs.discrete_mode_choice.components.estimators.MATSimTripScoringEstimator,org.matsim.core.scoring.functions.ScoringParametersForPerson,org.matsim.contribs.discrete_mode_choice.modules.config.DiscreteModeChoiceConfigGroup,org.matsim.contribs.discrete_mode_choice.replanning.time_interpreter.TimeInterpreter$Factory)
2024-03-18T14:18:59,410  INFO Injector:89   --> scope: Scopes.NO_SCOPE
2024-03-18T14:18:59,410  INFO Injector:94   ==full==> ProviderInstanceBinding{key=Key[type=org.matsim.contribs.discrete_mode_choice.components.estimators.MATSimDayScoringEstimator, annotation=[none]], source=public org.matsim.contribs.discrete_mode_choice.components.estimators.MATSimDayScoringEstimator org.matsim.contribs.discrete_mode_choice.modules.EstimatorModule.provideMATSimDayScoringEstimator(org.matsim.contribs.discrete_mode_choice.components.estimators.MATSimTripScoringEstimator,org.matsim.core.scoring.functions.ScoringParametersForPerson,org.matsim.contribs.discrete_mode_choice.modules.config.DiscreteModeChoiceConfigGroup,org.matsim.contribs.discrete_mode_choice.replanning.time_interpreter.TimeInterpreter$Factory), scope=Scopes.NO_SCOPE, provider=@Provides org.matsim.contribs.discrete_mode_choice.modules.EstimatorModule.provideMATSimDayScoringEstimator(EstimatorModule.java:121)}
2024-03-18T14:18:59,410  INFO Injector:96 
2024-03-18T14:18:59,411  INFO Injector:85 org.matsim.contribs.discrete_mode_choice.components.estimators.CumulativeTourEstimator 
2024-03-18T14:18:59,411  INFO Injector:86   --> provider: @Provides org.matsim.contribs.discrete_mode_choice.modules.EstimatorModule.provideCumulativeTourEstimator(EstimatorModule.java:128)
2024-03-18T14:18:59,411  INFO Injector:87   --> source: public org.matsim.contribs.discrete_mode_choice.components.estimators.CumulativeTourEstimator org.matsim.contribs.discrete_mode_choice.modules.EstimatorModule.provideCumulativeTourEstimator(org.matsim.contribs.discrete_mode_choice.model.trip_based.TripEstimator,org.matsim.contribs.discrete_mode_choice.replanning.time_interpreter.TimeInterpreter$Factory)
2024-03-18T14:18:59,411  INFO Injector:89   --> scope: Scopes.NO_SCOPE
2024-03-18T14:18:59,411  INFO Injector:94   ==full==> ProviderInstanceBinding{key=Key[type=org.matsim.contribs.discrete_mode_choice.components.estimators.CumulativeTourEstimator, annotation=[none]], source=public org.matsim.contribs.discrete_mode_choice.components.estimators.CumulativeTourEstimator org.matsim.contribs.discrete_mode_choice.modules.EstimatorModule.provideCumulativeTourEstimator(org.matsim.contribs.discrete_mode_choice.model.trip_based.TripEstimator,org.matsim.contribs.discrete_mode_choice.replanning.time_interpreter.TimeInterpreter$Factory), scope=Scopes.NO_SCOPE, provider=@Provides org.matsim.contribs.discrete_mode_choice.modules.EstimatorModule.provideCumulativeTourEstimator(EstimatorModule.java:128)}
2024-03-18T14:18:59,411  INFO Injector:96 
2024-03-18T14:18:59,411  INFO Injector:85 org.matsim.contribs.discrete_mode_choice.components.tour_finder.TourFinder @com.google.inject.internal.Element(setName=,uniqueId=158, type=MAPBINDER, keyType=java.lang.String)
2024-03-18T14:18:59,412  INFO Injector:86   --> provider: FactoryProxy{key=Key[type=org.matsim.contribs.discrete_mode_choice.components.tour_finder.TourFinder, annotation=@com.google.inject.internal.Element(setName=,uniqueId=158, type=MAPBINDER, keyType=java.lang.String)], provider=@Provides org.matsim.contribs.discrete_mode_choice.modules.TourFinderModule.providePlanTourFinder(TourFinderModule.java:42)[Scopes.SINGLETON]}
2024-03-18T14:18:59,412  INFO Injector:87   --> source: org.matsim.contribs.discrete_mode_choice.modules.AbstractDiscreteModeChoiceExtension.bindTourFinder(AbstractDiscreteModeChoiceExtension.java:94)
2024-03-18T14:18:59,412  INFO Injector:89   --> scope: Scopes.NO_SCOPE
2024-03-18T14:18:59,412  INFO Injector:92   --> target: Key[type=org.matsim.contribs.discrete_mode_choice.components.tour_finder.PlanTourFinder, annotation=[none]]
2024-03-18T14:18:59,412  INFO Injector:94   ==full==> LinkedKeyBinding{key=Key[type=org.matsim.contribs.discrete_mode_choice.components.tour_finder.TourFinder, annotation=@com.google.inject.internal.Element(setName=,uniqueId=158, type=MAPBINDER, keyType=java.lang.String)], source=org.matsim.contribs.discrete_mode_choice.modules.AbstractDiscreteModeChoiceExtension.bindTourFinder(AbstractDiscreteModeChoiceExtension.java:94), scope=Scopes.NO_SCOPE, target=Key[type=org.matsim.contribs.discrete_mode_choice.components.tour_finder.PlanTourFinder, annotation=[none]]}
2024-03-18T14:18:59,412  INFO Injector:96 
2024-03-18T14:18:59,412  INFO Injector:85 org.matsim.contribs.discrete_mode_choice.components.tour_finder.TourFinder @com.google.inject.internal.Element(setName=,uniqueId=160, type=MAPBINDER, keyType=java.lang.String)
2024-03-18T14:18:59,412  INFO Injector:86   --> provider: FactoryProxy{key=Key[type=org.matsim.contribs.discrete_mode_choice.components.tour_finder.TourFinder, annotation=@com.google.inject.internal.Element(setName=,uniqueId=160, type=MAPBINDER, keyType=java.lang.String)], provider=@Provides org.matsim.contribs.discrete_mode_choice.modules.TourFinderModule.provideActivityBasedTourFinder(TourFinderModule.java:48)[Scopes.SINGLETON]}
2024-03-18T14:18:59,412  INFO Injector:87   --> source: org.matsim.contribs.discrete_mode_choice.modules.AbstractDiscreteModeChoiceExtension.bindTourFinder(AbstractDiscreteModeChoiceExtension.java:94)
2024-03-18T14:18:59,412  INFO Injector:89   --> scope: Scopes.NO_SCOPE
2024-03-18T14:18:59,412  INFO Injector:92   --> target: Key[type=org.matsim.contribs.discrete_mode_choice.components.tour_finder.ActivityTourFinder, annotation=[none]]
2024-03-18T14:18:59,412  INFO Injector:94   ==full==> LinkedKeyBinding{key=Key[type=org.matsim.contribs.discrete_mode_choice.components.tour_finder.TourFinder, annotation=@com.google.inject.internal.Element(setName=,uniqueId=160, type=MAPBINDER, keyType=java.lang.String)], source=org.matsim.contribs.discrete_mode_choice.modules.AbstractDiscreteModeChoiceExtension.bindTourFinder(AbstractDiscreteModeChoiceExtension.java:94), scope=Scopes.NO_SCOPE, target=Key[type=org.matsim.contribs.discrete_mode_choice.components.tour_finder.ActivityTourFinder, annotation=[none]]}
2024-03-18T14:18:59,412  INFO Injector:96 
2024-03-18T14:18:59,412  INFO Injector:85 org.matsim.contribs.discrete_mode_choice.components.tour_finder.TourFinder @com.google.inject.internal.Element(setName=,uniqueId=162, type=MAPBINDER, keyType=java.lang.String)
2024-03-18T14:18:59,413  INFO Injector:86   --> provider: FactoryProxy{key=Key[type=org.matsim.contribs.discrete_mode_choice.components.tour_finder.TourFinder, annotation=@com.google.inject.internal.Element(setName=,uniqueId=162, type=MAPBINDER, keyType=java.lang.String)], provider=@Provides org.matsim.contribs.discrete_mode_choice.modules.TourFinderModule.provideHomeTourFinder(TourFinderModule.java:55)[Scopes.SINGLETON]}
2024-03-18T14:18:59,413  INFO Injector:87   --> source: org.matsim.contribs.discrete_mode_choice.modules.AbstractDiscreteModeChoiceExtension.bindTourFinder(AbstractDiscreteModeChoiceExtension.java:94)
2024-03-18T14:18:59,413  INFO Injector:89   --> scope: Scopes.NO_SCOPE
2024-03-18T14:18:59,413  INFO Injector:92   --> target: Key[type=org.matsim.contribs.discrete_mode_choice.components.tour_finder.HomeTourFinder, annotation=[none]]
2024-03-18T14:18:59,413  INFO Injector:94   ==full==> LinkedKeyBinding{key=Key[type=org.matsim.contribs.discrete_mode_choice.components.tour_finder.TourFinder, annotation=@com.google.inject.internal.Element(setName=,uniqueId=162, type=MAPBINDER, keyType=java.lang.String)], source=org.matsim.contribs.discrete_mode_choice.modules.AbstractDiscreteModeChoiceExtension.bindTourFinder(AbstractDiscreteModeChoiceExtension.java:94), scope=Scopes.NO_SCOPE, target=Key[type=org.matsim.contribs.discrete_mode_choice.components.tour_finder.HomeTourFinder, annotation=[none]]}
2024-03-18T14:18:59,413  INFO Injector:96 
2024-03-18T14:18:59,413  INFO Injector:85 org.matsim.contribs.discrete_mode_choice.components.tour_finder.PlanTourFinder 
2024-03-18T14:18:59,413  INFO Injector:86   --> provider: @Provides org.matsim.contribs.discrete_mode_choice.modules.TourFinderModule.providePlanTourFinder(TourFinderModule.java:42)[Scopes.SINGLETON]
2024-03-18T14:18:59,413  INFO Injector:87   --> source: public org.matsim.contribs.discrete_mode_choice.components.tour_finder.PlanTourFinder org.matsim.contribs.discrete_mode_choice.modules.TourFinderModule.providePlanTourFinder()
2024-03-18T14:18:59,413  INFO Injector:89   --> scope: Scopes.SINGLETON
2024-03-18T14:18:59,413  INFO Injector:94   ==full==> ProviderInstanceBinding{key=Key[type=org.matsim.contribs.discrete_mode_choice.components.tour_finder.PlanTourFinder, annotation=[none]], source=public org.matsim.contribs.discrete_mode_choice.components.tour_finder.PlanTourFinder org.matsim.contribs.discrete_mode_choice.modules.TourFinderModule.providePlanTourFinder(), scope=Scopes.SINGLETON, provider=@Provides org.matsim.contribs.discrete_mode_choice.modules.TourFinderModule.providePlanTourFinder(TourFinderModule.java:42)}
2024-03-18T14:18:59,413  INFO Injector:96 
2024-03-18T14:18:59,413  INFO Injector:85 org.matsim.contribs.discrete_mode_choice.components.tour_finder.ActivityTourFinder 
2024-03-18T14:18:59,413  INFO Injector:86   --> provider: @Provides org.matsim.contribs.discrete_mode_choice.modules.TourFinderModule.provideActivityBasedTourFinder(TourFinderModule.java:48)[Scopes.SINGLETON]
2024-03-18T14:18:59,413  INFO Injector:87   --> source: public org.matsim.contribs.discrete_mode_choice.components.tour_finder.ActivityTourFinder org.matsim.contribs.discrete_mode_choice.modules.TourFinderModule.provideActivityBasedTourFinder(org.matsim.contribs.discrete_mode_choice.modules.config.DiscreteModeChoiceConfigGroup)
2024-03-18T14:18:59,413  INFO Injector:89   --> scope: Scopes.SINGLETON
2024-03-18T14:18:59,414  INFO Injector:94   ==full==> ProviderInstanceBinding{key=Key[type=org.matsim.contribs.discrete_mode_choice.components.tour_finder.ActivityTourFinder, annotation=[none]], source=public org.matsim.contribs.discrete_mode_choice.components.tour_finder.ActivityTourFinder org.matsim.contribs.discrete_mode_choice.modules.TourFinderModule.provideActivityBasedTourFinder(org.matsim.contribs.discrete_mode_choice.modules.config.DiscreteModeChoiceConfigGroup), scope=Scopes.SINGLETON, provider=@Provides org.matsim.contribs.discrete_mode_choice.modules.TourFinderModule.provideActivityBasedTourFinder(TourFinderModule.java:48)}
2024-03-18T14:18:59,414  INFO Injector:96 
2024-03-18T14:18:59,414  INFO Injector:85 org.matsim.contribs.discrete_mode_choice.components.tour_finder.HomeTourFinder 
2024-03-18T14:18:59,414  INFO Injector:86   --> provider: @Provides org.matsim.contribs.discrete_mode_choice.modules.TourFinderModule.provideHomeTourFinder(TourFinderModule.java:55)[Scopes.SINGLETON]
2024-03-18T14:18:59,414  INFO Injector:87   --> source: public org.matsim.contribs.discrete_mode_choice.components.tour_finder.HomeTourFinder org.matsim.contribs.discrete_mode_choice.modules.TourFinderModule.provideHomeTourFinder(org.matsim.contribs.discrete_mode_choice.components.utils.home_finder.HomeFinder)
2024-03-18T14:18:59,414  INFO Injector:89   --> scope: Scopes.SINGLETON
2024-03-18T14:18:59,414  INFO Injector:94   ==full==> ProviderInstanceBinding{key=Key[type=org.matsim.contribs.discrete_mode_choice.components.tour_finder.HomeTourFinder, annotation=[none]], source=public org.matsim.contribs.discrete_mode_choice.components.tour_finder.HomeTourFinder org.matsim.contribs.discrete_mode_choice.modules.TourFinderModule.provideHomeTourFinder(org.matsim.contribs.discrete_mode_choice.components.utils.home_finder.HomeFinder), scope=Scopes.SINGLETON, provider=@Provides org.matsim.contribs.discrete_mode_choice.modules.TourFinderModule.provideHomeTourFinder(TourFinderModule.java:55)}
2024-03-18T14:18:59,414  INFO Injector:96 
2024-03-18T14:18:59,414  INFO Injector:85 org.matsim.contribs.discrete_mode_choice.components.tour_finder.TourFinder 
2024-03-18T14:18:59,414  INFO Injector:86   --> provider: @Provides org.matsim.contribs.discrete_mode_choice.modules.TourFinderModule.provideTourFinder(TourFinderModule.java:62)[Scopes.SINGLETON]
2024-03-18T14:18:59,414  INFO Injector:87   --> source: public org.matsim.contribs.discrete_mode_choice.components.tour_finder.TourFinder org.matsim.contribs.discrete_mode_choice.modules.TourFinderModule.provideTourFinder(org.matsim.contribs.discrete_mode_choice.modules.config.DiscreteModeChoiceConfigGroup,java.util.Map)
2024-03-18T14:18:59,414  INFO Injector:89   --> scope: Scopes.SINGLETON
2024-03-18T14:18:59,414  INFO Injector:94   ==full==> ProviderInstanceBinding{key=Key[type=org.matsim.contribs.discrete_mode_choice.components.tour_finder.TourFinder, annotation=[none]], source=public org.matsim.contribs.discrete_mode_choice.components.tour_finder.TourFinder org.matsim.contribs.discrete_mode_choice.modules.TourFinderModule.provideTourFinder(org.matsim.contribs.discrete_mode_choice.modules.config.DiscreteModeChoiceConfigGroup,java.util.Map), scope=Scopes.SINGLETON, provider=@Provides org.matsim.contribs.discrete_mode_choice.modules.TourFinderModule.provideTourFinder(TourFinderModule.java:62)}
2024-03-18T14:18:59,414  INFO Injector:96 
2024-03-18T14:18:59,415  INFO Injector:85 org.matsim.contribs.discrete_mode_choice.model.utilities.UtilitySelectorFactory @com.google.inject.internal.Element(setName=,uniqueId=164, type=MAPBINDER, keyType=java.lang.String)
2024-03-18T14:18:59,415  INFO Injector:86   --> provider: FactoryProxy{key=Key[type=org.matsim.contribs.discrete_mode_choice.model.utilities.UtilitySelectorFactory, annotation=@com.google.inject.internal.Element(setName=,uniqueId=164, type=MAPBINDER, keyType=java.lang.String)], provider=@Provides org.matsim.contribs.discrete_mode_choice.modules.SelectorModule.provideMaximumTripSelector(SelectorModule.java:54)[Scopes.SINGLETON]}
2024-03-18T14:18:59,415  INFO Injector:87   --> source: org.matsim.contribs.discrete_mode_choice.modules.AbstractDiscreteModeChoiceExtension.bindSelectorFactory(AbstractDiscreteModeChoiceExtension.java:86)
2024-03-18T14:18:59,415  INFO Injector:89   --> scope: Scopes.NO_SCOPE
2024-03-18T14:18:59,415  INFO Injector:92   --> target: Key[type=org.matsim.contribs.discrete_mode_choice.model.utilities.MaximumSelector$Factory, annotation=[none]]
2024-03-18T14:18:59,415  INFO Injector:94   ==full==> LinkedKeyBinding{key=Key[type=org.matsim.contribs.discrete_mode_choice.model.utilities.UtilitySelectorFactory, annotation=@com.google.inject.internal.Element(setName=,uniqueId=164, type=MAPBINDER, keyType=java.lang.String)], source=org.matsim.contribs.discrete_mode_choice.modules.AbstractDiscreteModeChoiceExtension.bindSelectorFactory(AbstractDiscreteModeChoiceExtension.java:86), scope=Scopes.NO_SCOPE, target=Key[type=org.matsim.contribs.discrete_mode_choice.model.utilities.MaximumSelector$Factory, annotation=[none]]}
2024-03-18T14:18:59,415  INFO Injector:96 
2024-03-18T14:18:59,415  INFO Injector:85 org.matsim.contribs.discrete_mode_choice.model.utilities.UtilitySelectorFactory @com.google.inject.internal.Element(setName=,uniqueId=166, type=MAPBINDER, keyType=java.lang.String)
2024-03-18T14:18:59,416  INFO Injector:86   --> provider: FactoryProxy{key=Key[type=org.matsim.contribs.discrete_mode_choice.model.utilities.UtilitySelectorFactory, annotation=@com.google.inject.internal.Element(setName=,uniqueId=166, type=MAPBINDER, keyType=java.lang.String)], provider=@Provides org.matsim.contribs.discrete_mode_choice.modules.SelectorModule.provideMultinomialLogitTripSelector(SelectorModule.java:61)[Scopes.SINGLETON]}
2024-03-18T14:18:59,416  INFO Injector:87   --> source: org.matsim.contribs.discrete_mode_choice.modules.AbstractDiscreteModeChoiceExtension.bindSelectorFactory(AbstractDiscreteModeChoiceExtension.java:86)
2024-03-18T14:18:59,416  INFO Injector:89   --> scope: Scopes.NO_SCOPE
2024-03-18T14:18:59,416  INFO Injector:92   --> target: Key[type=org.matsim.contribs.discrete_mode_choice.model.utilities.MultinomialLogitSelector$Factory, annotation=[none]]
2024-03-18T14:18:59,416  INFO Injector:94   ==full==> LinkedKeyBinding{key=Key[type=org.matsim.contribs.discrete_mode_choice.model.utilities.UtilitySelectorFactory, annotation=@com.google.inject.internal.Element(setName=,uniqueId=166, type=MAPBINDER, keyType=java.lang.String)], source=org.matsim.contribs.discrete_mode_choice.modules.AbstractDiscreteModeChoiceExtension.bindSelectorFactory(AbstractDiscreteModeChoiceExtension.java:86), scope=Scopes.NO_SCOPE, target=Key[type=org.matsim.contribs.discrete_mode_choice.model.utilities.MultinomialLogitSelector$Factory, annotation=[none]]}
2024-03-18T14:18:59,416  INFO Injector:96 
2024-03-18T14:18:59,416  INFO Injector:85 org.matsim.contribs.discrete_mode_choice.model.utilities.UtilitySelectorFactory @com.google.inject.internal.Element(setName=,uniqueId=168, type=MAPBINDER, keyType=java.lang.String)
2024-03-18T14:18:59,416  INFO Injector:86   --> provider: FactoryProxy{key=Key[type=org.matsim.contribs.discrete_mode_choice.model.utilities.UtilitySelectorFactory, annotation=@com.google.inject.internal.Element(setName=,uniqueId=168, type=MAPBINDER, keyType=java.lang.String)], provider=@Provides org.matsim.contribs.discrete_mode_choice.modules.SelectorModule.provideRandomTripSelector(SelectorModule.java:69)[Scopes.SINGLETON]}
2024-03-18T14:18:59,416  INFO Injector:87   --> source: org.matsim.contribs.discrete_mode_choice.modules.AbstractDiscreteModeChoiceExtension.bindSelectorFactory(AbstractDiscreteModeChoiceExtension.java:86)
2024-03-18T14:18:59,416  INFO Injector:89   --> scope: Scopes.NO_SCOPE
2024-03-18T14:18:59,416  INFO Injector:92   --> target: Key[type=org.matsim.contribs.discrete_mode_choice.model.utilities.RandomSelector$Factory, annotation=[none]]
2024-03-18T14:18:59,416  INFO Injector:94   ==full==> LinkedKeyBinding{key=Key[type=org.matsim.contribs.discrete_mode_choice.model.utilities.UtilitySelectorFactory, annotation=@com.google.inject.internal.Element(setName=,uniqueId=168, type=MAPBINDER, keyType=java.lang.String)], source=org.matsim.contribs.discrete_mode_choice.modules.AbstractDiscreteModeChoiceExtension.bindSelectorFactory(AbstractDiscreteModeChoiceExtension.java:86), scope=Scopes.NO_SCOPE, target=Key[type=org.matsim.contribs.discrete_mode_choice.model.utilities.RandomSelector$Factory, annotation=[none]]}
2024-03-18T14:18:59,416  INFO Injector:96 
2024-03-18T14:18:59,416  INFO Injector:85 org.matsim.contribs.discrete_mode_choice.model.utilities.RandomSelector$Factory 
2024-03-18T14:18:59,416  INFO Injector:86   --> provider: @Provides org.matsim.contribs.discrete_mode_choice.modules.SelectorModule.provideRandomTripSelector(SelectorModule.java:69)[Scopes.SINGLETON]
[...]
2024-03-18T15:12:43,079  INFO ParallelProgress:26 Cutting population ... 8527080/8957110 (95.20%)
2024-03-18T15:12:44,079  INFO ParallelProgress:26 Cutting population ... 8527880/8957110 (95.21%)
2024-03-18T15:12:45,080  INFO ParallelProgress:26 Cutting population ... 8528520/8957110 (95.22%)
2024-03-18T15:12:46,080  INFO ParallelProgress:26 Cutting population ... 8529080/8957110 (95.22%)
2024-03-18T15:12:47,080  INFO ParallelProgress:26 Cutting population ... 8529720/8957110 (95.23%)
2024-03-18T15:12:48,080  INFO ParallelProgress:26 Cutting population ... 8530320/8957110 (95.24%)
2024-03-18T15:12:49,081  INFO ParallelProgress:26 Cutting population ... 8530960/8957110 (95.24%)
2024-03-18T15:12:50,081  INFO ParallelProgress:26 Cutting population ... 8531560/8957110 (95.25%)
2024-03-18T15:12:51,081  INFO ParallelProgress:26 Cutting population ... 8532280/8957110 (95.26%)
2024-03-18T15:12:52,082  INFO ParallelProgress:26 Cutting population ... 8532920/8957110 (95.26%)
2024-03-18T15:12:53,082  INFO ParallelProgress:26 Cutting population ... 8533600/8957110 (95.27%)
2024-03-18T15:12:54,082  INFO ParallelProgress:26 Cutting population ... 8534240/8957110 (95.28%)
2024-03-18T15:12:55,082  INFO ParallelProgress:26 Cutting population ... 8534920/8957110 (95.29%)
2024-03-18T15:12:56,083  INFO ParallelProgress:26 Cutting population ... 8535600/8957110 (95.29%)
2024-03-18T15:12:57,083  INFO ParallelProgress:26 Cutting population ... 8536240/8957110 (95.30%)
2024-03-18T15:12:58,083  INFO ParallelProgress:26 Cutting population ... 8536960/8957110 (95.31%)
2024-03-18T15:12:59,084  INFO ParallelProgress:26 Cutting population ... 8537760/8957110 (95.32%)
2024-03-18T15:13:00,084  INFO ParallelProgress:26 Cutting population ... 8538560/8957110 (95.33%)
2024-03-18T15:13:01,084  INFO ParallelProgress:26 Cutting population ... 8539280/8957110 (95.34%)
2024-03-18T15:13:02,084  INFO ParallelProgress:26 Cutting population ... 8539920/8957110 (95.34%)
2024-03-18T15:13:03,085  INFO ParallelProgress:26 Cutting population ... 8540680/8957110 (95.35%)
2024-03-18T15:13:04,085  INFO ParallelProgress:26 Cutting population ... 8541640/8957110 (95.36%)
2024-03-18T15:13:05,085  INFO ParallelProgress:26 Cutting population ... 8542640/8957110 (95.37%)
2024-03-18T15:13:06,086  INFO ParallelProgress:26 Cutting population ... 8543640/8957110 (95.38%)
2024-03-18T15:13:07,086  INFO ParallelProgress:26 Cutting population ... 8544400/8957110 (95.39%)
2024-03-18T15:13:08,086  INFO ParallelProgress:26 Cutting population ... 8545200/8957110 (95.40%)
2024-03-18T15:13:09,086  INFO ParallelProgress:26 Cutting population ... 8546240/8957110 (95.41%)
2024-03-18T15:13:10,087  INFO ParallelProgress:26 Cutting population ... 8547000/8957110 (95.42%)
2024-03-18T15:13:11,092  INFO ParallelProgress:26 Cutting population ... 8547720/8957110 (95.43%)
2024-03-18T15:13:12,093  INFO ParallelProgress:26 Cutting population ... 8548480/8957110 (95.44%)
2024-03-18T15:13:13,093  INFO ParallelProgress:26 Cutting population ... 8549320/8957110 (95.45%)
2024-03-18T15:13:14,094  INFO ParallelProgress:26 Cutting population ... 8550160/8957110 (95.46%)
2024-03-18T15:13:15,094  INFO ParallelProgress:26 Cutting population ... 8550920/8957110 (95.47%)
2024-03-18T15:13:16,094  INFO ParallelProgress:26 Cutting population ... 8551680/8957110 (95.47%)
2024-03-18T15:13:17,095  INFO ParallelProgress:26 Cutting population ... 8552440/8957110 (95.48%)
2024-03-18T15:13:18,095  INFO ParallelProgress:26 Cutting population ... 8553200/8957110 (95.49%)
2024-03-18T15:13:19,096  INFO ParallelProgress:26 Cutting population ... 8553920/8957110 (95.50%)
2024-03-18T15:13:20,096  INFO ParallelProgress:26 Cutting population ... 8554640/8957110 (95.51%)
2024-03-18T15:13:21,097  INFO ParallelProgress:26 Cutting population ... 8555320/8957110 (95.51%)
2024-03-18T15:13:22,097  INFO ParallelProgress:26 Cutting population ... 8556000/8957110 (95.52%)
2024-03-18T15:13:23,098  INFO ParallelProgress:26 Cutting population ... 8556640/8957110 (95.53%)
2024-03-18T15:13:24,098  INFO ParallelProgress:26 Cutting population ... 8557400/8957110 (95.54%)
2024-03-18T15:13:25,098  INFO ParallelProgress:26 Cutting population ... 8558120/8957110 (95.55%)
2024-03-18T15:13:26,099  INFO ParallelProgress:26 Cutting population ... 8558920/8957110 (95.55%)
2024-03-18T15:13:27,099  INFO ParallelProgress:26 Cutting population ... 8559600/8957110 (95.56%)
2024-03-18T15:13:28,100  INFO ParallelProgress:26 Cutting population ... 8560440/8957110 (95.57%)
2024-03-18T15:13:29,100  INFO ParallelProgress:26 Cutting population ... 8561160/8957110 (95.58%)
2024-03-18T15:13:30,101  INFO ParallelProgress:26 Cutting population ... 8562040/8957110 (95.59%)
2024-03-18T15:13:31,101  INFO ParallelProgress:26 Cutting population ... 8563440/8957110 (95.60%)
2024-03-18T15:13:32,101  INFO ParallelProgress:26 Cutting population ... 8564840/8957110 (95.62%)
2024-03-18T15:13:33,102  INFO ParallelProgress:26 Cutting population ... 8566000/8957110 (95.63%)
2024-03-18T15:13:34,102  INFO ParallelProgress:26 Cutting population ... 8567360/8957110 (95.65%)
2024-03-18T15:13:35,103  INFO ParallelProgress:26 Cutting population ... 8568680/8957110 (95.66%)
2024-03-18T15:13:36,103  INFO ParallelProgress:26 Cutting population ... 8570040/8957110 (95.68%)
2024-03-18T15:13:37,103  INFO ParallelProgress:26 Cutting population ... 8571280/8957110 (95.69%)
2024-03-18T15:13:38,104  INFO ParallelProgress:26 Cutting population ... 8572480/8957110 (95.71%)
2024-03-18T15:13:39,104  INFO ParallelProgress:26 Cutting population ... 8573600/8957110 (95.72%)
2024-03-18T15:13:40,105  INFO ParallelProgress:26 Cutting population ... 8574600/8957110 (95.73%)
2024-03-18T15:13:41,105  INFO ParallelProgress:26 Cutting population ... 8575400/8957110 (95.74%)
2024-03-18T15:13:42,106  INFO ParallelProgress:26 Cutting population ... 8576280/8957110 (95.75%)
2024-03-18T15:13:43,106  INFO ParallelProgress:26 Cutting population ... 8577200/8957110 (95.76%)
2024-03-18T15:13:44,106  INFO ParallelProgress:26 Cutting population ... 8578080/8957110 (95.77%)
2024-03-18T15:13:45,107  INFO ParallelProgress:26 Cutting population ... 8579240/8957110 (95.78%)
2024-03-18T15:13:46,107  INFO ParallelProgress:26 Cutting population ... 8580480/8957110 (95.80%)
2024-03-18T15:13:47,108  INFO ParallelProgress:26 Cutting population ... 8581480/8957110 (95.81%)
2024-03-18T15:13:48,108  INFO ParallelProgress:26 Cutting population ... 8582520/8957110 (95.82%)
2024-03-18T15:13:49,108  INFO ParallelProgress:26 Cutting population ... 8583560/8957110 (95.83%)
2024-03-18T15:13:50,109  INFO ParallelProgress:26 Cutting population ... 8584520/8957110 (95.84%)
2024-03-18T15:13:51,109  INFO ParallelProgress:26 Cutting population ... 8585400/8957110 (95.85%)
2024-03-18T15:13:52,110  INFO ParallelProgress:26 Cutting population ... 8586320/8957110 (95.86%)
2024-03-18T15:13:53,110  INFO ParallelProgress:26 Cutting population ... 8587160/8957110 (95.87%)
2024-03-18T15:13:54,122  INFO ParallelProgress:26 Cutting population ... 8587880/8957110 (95.88%)
2024-03-18T15:13:55,123  INFO ParallelProgress:26 Cutting population ... 8588520/8957110 (95.88%)
2024-03-18T15:13:56,123  INFO ParallelProgress:26 Cutting population ... 8589320/8957110 (95.89%)
2024-03-18T15:13:57,124  INFO ParallelProgress:26 Cutting population ... 8590000/8957110 (95.90%)
2024-03-18T15:13:58,124  INFO ParallelProgress:26 Cutting population ... 8590720/8957110 (95.91%)
2024-03-18T15:13:59,125  INFO ParallelProgress:26 Cutting population ... 8591480/8957110 (95.92%)
2024-03-18T15:14:00,125  INFO ParallelProgress:26 Cutting population ... 8592400/8957110 (95.93%)
2024-03-18T15:14:01,126  INFO ParallelProgress:26 Cutting population ... 8593160/8957110 (95.94%)
2024-03-18T15:14:02,126  INFO ParallelProgress:26 Cutting population ... 8593920/8957110 (95.95%)
2024-03-18T15:14:03,126  INFO ParallelProgress:26 Cutting population ... 8594760/8957110 (95.95%)
2024-03-18T15:14:04,127  INFO ParallelProgress:26 Cutting population ... 8595560/8957110 (95.96%)
2024-03-18T15:14:05,127  INFO ParallelProgress:26 Cutting population ... 8596440/8957110 (95.97%)
2024-03-18T15:14:06,127  INFO ParallelProgress:26 Cutting population ... 8597400/8957110 (95.98%)
2024-03-18T15:14:07,128  INFO ParallelProgress:26 Cutting population ... 8598320/8957110 (95.99%)
2024-03-18T15:14:08,128  INFO ParallelProgress:26 Cutting population ... 8599280/8957110 (96.01%)
2024-03-18T15:14:09,129  INFO ParallelProgress:26 Cutting population ... 8600240/8957110 (96.02%)
2024-03-18T15:14:10,129  INFO ParallelProgress:26 Cutting population ... 8601280/8957110 (96.03%)
2024-03-18T15:14:11,130  INFO ParallelProgress:26 Cutting population ... 8602080/8957110 (96.04%)
2024-03-18T15:14:12,130  INFO ParallelProgress:26 Cutting population ... 8602920/8957110 (96.05%)
2024-03-18T15:14:13,130  INFO ParallelProgress:26 Cutting population ... 8603760/8957110 (96.06%)
2024-03-18T15:14:14,131  INFO ParallelProgress:26 Cutting population ... 8604720/8957110 (96.07%)
2024-03-18T15:14:15,131  INFO ParallelProgress:26 Cutting population ... 8605760/8957110 (96.08%)
2024-03-18T15:14:16,132  INFO ParallelProgress:26 Cutting population ... 8607120/8957110 (96.09%)
2024-03-18T15:14:17,132  INFO ParallelProgress:26 Cutting population ... 8608200/8957110 (96.10%)
2024-03-18T15:14:18,132  INFO ParallelProgress:26 Cutting population ... 8609440/8957110 (96.12%)
2024-03-18T15:14:19,133  INFO ParallelProgress:26 Cutting population ... 8610720/8957110 (96.13%)
2024-03-18T15:14:20,133  INFO ParallelProgress:26 Cutting population ... 8612040/8957110 (96.15%)
2024-03-18T15:14:21,134  INFO ParallelProgress:26 Cutting population ... 8613280/8957110 (96.16%)
2024-03-18T15:14:22,134  INFO ParallelProgress:26 Cutting population ... 8614400/8957110 (96.17%)
2024-03-18T15:14:23,135  INFO ParallelProgress:26 Cutting population ... 8615280/8957110 (96.18%)
2024-03-18T15:14:24,135  INFO ParallelProgress:26 Cutting population ... 8616200/8957110 (96.19%)
2024-03-18T15:14:25,136  INFO ParallelProgress:26 Cutting population ... 8617000/8957110 (96.20%)
2024-03-18T15:14:26,136  INFO ParallelProgress:26 Cutting population ... 8618160/8957110 (96.22%)
2024-03-18T15:14:27,137  INFO ParallelProgress:26 Cutting population ... 8619520/8957110 (96.23%)
2024-03-18T15:14:28,137  INFO ParallelProgress:26 Cutting population ... 8620720/8957110 (96.24%)
2024-03-18T15:14:29,138  INFO ParallelProgress:26 Cutting population ... 8621640/8957110 (96.25%)
2024-03-18T15:14:30,138  INFO ParallelProgress:26 Cutting population ... 8622640/8957110 (96.27%)
2024-03-18T15:14:31,139  INFO ParallelProgress:26 Cutting population ... 8623640/8957110 (96.28%)
2024-03-18T15:14:32,139  INFO ParallelProgress:26 Cutting population ... 8624600/8957110 (96.29%)
2024-03-18T15:14:33,140  INFO ParallelProgress:26 Cutting population ... 8625480/8957110 (96.30%)
2024-03-18T15:14:34,140  INFO ParallelProgress:26 Cutting population ... 8626320/8957110 (96.31%)
2024-03-18T15:14:35,140  INFO ParallelProgress:26 Cutting population ... 8627400/8957110 (96.32%)
2024-03-18T15:14:36,141  INFO ParallelProgress:26 Cutting population ... 8628640/8957110 (96.33%)
2024-03-18T15:14:37,141  INFO ParallelProgress:26 Cutting population ... 8629480/8957110 (96.34%)
2024-03-18T15:14:38,142  INFO ParallelProgress:26 Cutting population ... 8630320/8957110 (96.35%)
2024-03-18T15:14:39,142  INFO ParallelProgress:26 Cutting population ... 8631200/8957110 (96.36%)
2024-03-18T15:14:40,143  INFO ParallelProgress:26 Cutting population ... 8632160/8957110 (96.37%)
2024-03-18T15:14:41,143  INFO ParallelProgress:26 Cutting population ... 8633120/8957110 (96.38%)
2024-03-18T15:14:42,143  INFO ParallelProgress:26 Cutting population ... 8634040/8957110 (96.39%)
2024-03-18T15:14:43,144  INFO ParallelProgress:26 Cutting population ... 8634920/8957110 (96.40%)
2024-03-18T15:14:44,144  INFO ParallelProgress:26 Cutting population ... 8635880/8957110 (96.41%)
2024-03-18T15:14:45,145  INFO ParallelProgress:26 Cutting population ... 8636720/8957110 (96.42%)
2024-03-18T15:14:46,145  INFO ParallelProgress:26 Cutting population ... 8637640/8957110 (96.43%)
2024-03-18T15:14:47,146  INFO ParallelProgress:26 Cutting population ... 8638520/8957110 (96.44%)
2024-03-18T15:14:48,146  INFO ParallelProgress:26 Cutting population ... 8639440/8957110 (96.45%)
2024-03-18T15:14:49,147  INFO ParallelProgress:26 Cutting population ... 8640360/8957110 (96.46%)
2024-03-18T15:14:50,147  INFO ParallelProgress:26 Cutting population ... 8641280/8957110 (96.47%)
2024-03-18T15:14:51,147  INFO ParallelProgress:26 Cutting population ... 8642200/8957110 (96.48%)
2024-03-18T15:14:52,148  INFO ParallelProgress:26 Cutting population ... 8643200/8957110 (96.50%)
2024-03-18T15:14:53,148  INFO ParallelProgress:26 Cutting population ... 8644200/8957110 (96.51%)
2024-03-18T15:14:54,149  INFO ParallelProgress:26 Cutting population ... 8645120/8957110 (96.52%)
2024-03-18T15:14:55,149  INFO ParallelProgress:26 Cutting population ... 8646040/8957110 (96.53%)
2024-03-18T15:14:56,150  INFO ParallelProgress:26 Cutting population ... 8647000/8957110 (96.54%)
2024-03-18T15:14:57,150  INFO ParallelProgress:26 Cutting population ... 8647920/8957110 (96.55%)
2024-03-18T15:14:58,151  INFO ParallelProgress:26 Cutting population ... 8648880/8957110 (96.56%)
2024-03-18T15:14:59,151  INFO ParallelProgress:26 Cutting population ... 8649800/8957110 (96.57%)
2024-03-18T15:15:00,151  INFO ParallelProgress:26 Cutting population ... 8650520/8957110 (96.58%)
2024-03-18T15:15:01,152  INFO ParallelProgress:26 Cutting population ... 8651440/8957110 (96.59%)
2024-03-18T15:15:02,152  INFO ParallelProgress:26 Cutting population ... 8652440/8957110 (96.60%)
2024-03-18T15:15:03,153  INFO ParallelProgress:26 Cutting population ... 8653400/8957110 (96.61%)
2024-03-18T15:15:04,153  INFO ParallelProgress:26 Cutting population ... 8654280/8957110 (96.62%)
2024-03-18T15:15:05,154  INFO ParallelProgress:26 Cutting population ... 8655200/8957110 (96.63%)
2024-03-18T15:15:06,154  INFO ParallelProgress:26 Cutting population ... 8656240/8957110 (96.64%)
2024-03-18T15:15:07,155  INFO ParallelProgress:26 Cutting population ... 8657240/8957110 (96.65%)
2024-03-18T15:15:08,155  INFO ParallelProgress:26 Cutting population ... 8658160/8957110 (96.66%)
2024-03-18T15:15:09,155  INFO ParallelProgress:26 Cutting population ... 8659120/8957110 (96.67%)
2024-03-18T15:15:10,156  INFO ParallelProgress:26 Cutting population ... 8660040/8957110 (96.68%)
2024-03-18T15:15:11,156  INFO ParallelProgress:26 Cutting population ... 8661040/8957110 (96.69%)
2024-03-18T15:15:12,157  INFO ParallelProgress:26 Cutting population ... 8662000/8957110 (96.71%)
2024-03-18T15:15:13,157  INFO ParallelProgress:26 Cutting population ... 8662880/8957110 (96.72%)
2024-03-18T15:15:14,158  INFO ParallelProgress:26 Cutting population ... 8663800/8957110 (96.73%)
2024-03-18T15:15:15,158  INFO ParallelProgress:26 Cutting population ... 8664800/8957110 (96.74%)
2024-03-18T15:15:16,159  INFO ParallelProgress:26 Cutting population ... 8665800/8957110 (96.75%)
2024-03-18T15:15:17,159  INFO ParallelProgress:26 Cutting population ... 8666760/8957110 (96.76%)
2024-03-18T15:15:18,159  INFO ParallelProgress:26 Cutting population ... 8667680/8957110 (96.77%)
2024-03-18T15:15:19,160  INFO ParallelProgress:26 Cutting population ... 8668520/8957110 (96.78%)
2024-03-18T15:15:20,160  INFO ParallelProgress:26 Cutting population ... 8669480/8957110 (96.79%)
2024-03-18T15:15:21,161  INFO ParallelProgress:26 Cutting population ... 8670480/8957110 (96.80%)
2024-03-18T15:15:22,161  INFO ParallelProgress:26 Cutting population ... 8671280/8957110 (96.81%)
2024-03-18T15:15:23,161  INFO ParallelProgress:26 Cutting population ... 8678120/8957110 (96.89%)
2024-03-18T15:15:24,162  INFO ParallelProgress:26 Cutting population ... 8688360/8957110 (97.00%)
2024-03-18T15:15:25,162  INFO ParallelProgress:26 Cutting population ... 8695000/8957110 (97.07%)
2024-03-18T15:15:26,163  INFO ParallelProgress:26 Cutting population ... 8704760/8957110 (97.18%)
2024-03-18T15:15:27,163  INFO ParallelProgress:26 Cutting population ... 8712840/8957110 (97.27%)
2024-03-18T15:15:28,164  INFO ParallelProgress:26 Cutting population ... 8718840/8957110 (97.34%)
2024-03-18T15:15:29,164  INFO ParallelProgress:26 Cutting population ... 8726680/8957110 (97.43%)
2024-03-18T15:15:30,164  INFO ParallelProgress:26 Cutting population ... 8736040/8957110 (97.53%)
2024-03-18T15:15:31,165  INFO ParallelProgress:26 Cutting population ... 8745000/8957110 (97.63%)
2024-03-18T15:15:32,165  INFO ParallelProgress:26 Cutting population ... 8753120/8957110 (97.72%)
2024-03-18T15:15:33,166  INFO ParallelProgress:26 Cutting population ... 8759760/8957110 (97.80%)
2024-03-18T15:15:34,205  INFO ParallelProgress:26 Cutting population ... 8766280/8957110 (97.87%)
2024-03-18T15:15:35,205  INFO ParallelProgress:26 Cutting population ... 8773120/8957110 (97.95%)
2024-03-18T15:15:36,206  INFO ParallelProgress:26 Cutting population ... 8780640/8957110 (98.03%)
2024-03-18T15:15:37,206  INFO ParallelProgress:26 Cutting population ... 8787400/8957110 (98.11%)
2024-03-18T15:15:38,206  INFO ParallelProgress:26 Cutting population ... 8791560/8957110 (98.15%)
2024-03-18T15:15:39,207  INFO ParallelProgress:26 Cutting population ... 8797920/8957110 (98.22%)
2024-03-18T15:15:40,207  INFO ParallelProgress:26 Cutting population ... 8805520/8957110 (98.31%)
2024-03-18T15:15:41,208  INFO ParallelProgress:26 Cutting population ... 8811640/8957110 (98.38%)
2024-03-18T15:15:42,208  INFO ParallelProgress:26 Cutting population ... 8820920/8957110 (98.48%)
2024-03-18T15:15:43,208  INFO ParallelProgress:26 Cutting population ... 8831080/8957110 (98.59%)
2024-03-18T15:15:44,209  INFO ParallelProgress:26 Cutting population ... 8842240/8957110 (98.72%)
2024-03-18T15:15:45,209  INFO ParallelProgress:26 Cutting population ... 8850480/8957110 (98.81%)
2024-03-18T15:15:46,210  INFO ParallelProgress:26 Cutting population ... 8858440/8957110 (98.90%)
2024-03-18T15:15:47,210  INFO ParallelProgress:26 Cutting population ... 8862280/8957110 (98.94%)
2024-03-18T15:15:48,211  INFO ParallelProgress:26 Cutting population ... 8866200/8957110 (98.99%)
2024-03-18T15:15:49,211  INFO ParallelProgress:26 Cutting population ... 8870120/8957110 (99.03%)
2024-03-18T15:15:50,211  INFO ParallelProgress:26 Cutting population ... 8873720/8957110 (99.07%)
2024-03-18T15:15:51,212  INFO ParallelProgress:26 Cutting population ... 8875800/8957110 (99.09%)
2024-03-18T15:15:52,212  INFO ParallelProgress:26 Cutting population ... 8880280/8957110 (99.14%)
2024-03-18T15:15:53,213  INFO ParallelProgress:26 Cutting population ... 8890200/8957110 (99.25%)
2024-03-18T15:15:54,213  INFO ParallelProgress:26 Cutting population ... 8897200/8957110 (99.33%)
2024-03-18T15:15:55,214  INFO ParallelProgress:26 Cutting population ... 8903040/8957110 (99.40%)
2024-03-18T15:15:56,214  INFO ParallelProgress:26 Cutting population ... 8910080/8957110 (99.47%)
2024-03-18T15:15:57,214  INFO ParallelProgress:26 Cutting population ... 8917200/8957110 (99.55%)
2024-03-18T15:15:58,215  INFO ParallelProgress:26 Cutting population ... 8923600/8957110 (99.63%)
2024-03-18T15:15:59,215  INFO ParallelProgress:26 Cutting population ... 8927560/8957110 (99.67%)
2024-03-18T15:16:00,216  INFO ParallelProgress:26 Cutting population ... 8937800/8957110 (99.78%)
2024-03-18T15:16:01,216  INFO ParallelProgress:26 Cutting population ... 8945800/8957110 (99.87%)
2024-03-18T15:16:02,216  INFO ParallelProgress:26 Cutting population ... 8952240/8957110 (99.95%)
Exception in thread "main" java.lang.RuntimeException: Errors occured while cutting the population.
	at org.eqasim.core.scenario.cutter.population.PopulationCutter.run(PopulationCutter.java:62)
	at org.eqasim.core.scenario.cutter.RunScenarioCutter.main(RunScenarioCutter.java:83)
	at abmt2023.project.utils.RunSwitzerlandScenarioCutter.main(RunSwitzerlandScenarioCutter.java:25)
