WARNING: sun.reflect.Reflection.getCallerClass is not supported. This will impact performance.
2024-03-18T16:45:24,286  INFO CommandLine:505 Received 0 positional command line arguments:
2024-03-18T16:45:24,289  INFO CommandLine:506    
2024-03-18T16:45:24,289  INFO CommandLine:528 Received 2 command line options with 0 prefixes:
2024-03-18T16:45:24,289  INFO CommandLine:533    config-path = /home/muaa/Thurgau_Scenario/100pct/configOriginaleTaglio.xml
2024-03-18T16:45:24,289  INFO CommandLine:533    output-path = /home/muaa/Thurgau_Scenario/hdw
2024-03-18T16:45:24,315  INFO IOUtils:187 Resolved /home/muaa/Thurgau_Scenario/100pct/configOriginaleTaglio.xml to /home/muaa/Thurgau_Scenario/100pct/configOriginaleTaglio.xml
2024-03-18T16:45:24,318  INFO Config:572 setting context to [file:/home/muaa/2023_ABMT_Corrado/abmt2023/]
2024-03-18T16:45:24,371  INFO Version:21 HV000001: Hibernate Validator null
2024-03-18T16:45:24,519  INFO MatsimXmlParser:160 starting to parse xml from url file:/home/muaa/Thurgau_Scenario/100pct/configOriginaleTaglio.xml ...
2024-03-18T16:45:24,601  INFO ConfigReader:102 using config_v2-reader
2024-03-18T16:45:24,601  INFO MatsimXmlParser:276 Trying to load http://www.matsim.org/files/dtd/config_v2.dtd. In some cases (e.g. network interface up but no connection), this may take a bit.
2024-03-18T16:45:24,898  INFO GlobalConfigGroup:92 setting number of threads to: 48
2024-03-18T16:45:24,904  WARN PlanCalcScoreConfigGroup$ReflectiveDelegate:1622 Setting pathSizeLogitBeta different from zero is experimental.  KN, Sep'08
2024-03-18T16:45:24,928  INFO PlanCalcScoreConfigGroup:554 scoring parameters for subpopulation null were just replaced.
2024-03-18T16:45:24,930  WARN PlansCalcRouteConfigGroup:342 The first mode routing params that are explicitly defined clear the default mode routing params.  This functionality was removed for 
2024-03-18T16:45:24,930  WARN PlansCalcRouteConfigGroup:343     some weeks in the development head, after release 11.x, and before release 12.x; it is now back.  If you want to avoid this 
2024-03-18T16:45:24,930  WARN PlansCalcRouteConfigGroup:344     warning, use clearModeRoutingParams(true) in code, and "clearDefaultTeleportedModeParams"=true in xml config.
2024-03-18T16:45:24,942  INFO Config:572 setting context to [file:/home/muaa/Thurgau_Scenario/100pct/configOriginaleTaglio.xml]
2024-03-18T16:45:24,964  INFO ScenarioLoaderImpl:134 loading network from file:/home/muaa/Thurgau_Scenario/100pct/network.xml.gz
2024-03-18T16:45:24,966  INFO MatsimXmlParser:160 starting to parse xml from url file:/home/muaa/Thurgau_Scenario/100pct/network.xml.gz ...
2024-03-18T16:45:25,068  INFO MatsimNetworkReader:120 using network_v2-reader.
2024-03-18T16:45:25,068  INFO MatsimXmlParser:276 Trying to load http://www.matsim.org/files/dtd/network_v2.dtd. In some cases (e.g. network interface up but no connection), this may take a bit.
2024-03-18T16:45:25,110  INFO NetworkImpl:163  node # 1
2024-03-18T16:45:25,110  INFO NetworkImpl:163  node # 4
2024-03-18T16:45:25,113  INFO NetworkImpl:163  node # 16
2024-03-18T16:45:25,119  INFO NetworkImpl:163  node # 64
2024-03-18T16:45:25,132  INFO NetworkImpl:163  node # 256
2024-03-18T16:45:25,152  INFO NetworkImpl:163  node # 1024
2024-03-18T16:45:25,185  INFO NetworkImpl:163  node # 4096
2024-03-18T16:45:25,298  INFO NetworkImpl:163  node # 16384
2024-03-18T16:45:25,322  INFO NetworkImpl:159  link # 1
2024-03-18T16:45:25,323  INFO NetworkImpl:159  link # 4
2024-03-18T16:45:25,329  INFO NetworkImpl:159  link # 16
2024-03-18T16:45:25,340  INFO NetworkImpl:159  link # 64
2024-03-18T16:45:25,362  INFO NetworkImpl:159  link # 256
2024-03-18T16:45:25,407  INFO NetworkImpl:159  link # 1024
2024-03-18T16:45:25,521  INFO NetworkImpl:159  link # 4096
2024-03-18T16:45:25,795  INFO NetworkImpl:159  link # 16384
2024-03-18T16:45:26,489  WARN LinkImpl:125 length=0.0 of link id pt_8014587 may cause problems
2024-03-18T16:45:26,489  WARN LinkImpl:127  Future occurences of this logging statement are suppressed.
2024-03-18T16:45:26,493  INFO ScenarioLoaderImpl:159 loading facilities from file:/home/muaa/Thurgau_Scenario/100pct/facilities.xml.gz
2024-03-18T16:45:26,496  INFO MatsimXmlParser:160 starting to parse xml from url file:/home/muaa/Thurgau_Scenario/100pct/facilities.xml.gz ...
2024-03-18T16:45:26,513  INFO MatsimFacilitiesReader:137 using facilities_v1-reader.
2024-03-18T16:45:26,513  INFO MatsimXmlParser:276 Trying to load http://www.matsim.org/files/dtd/facilities_v1.dtd. In some cases (e.g. network interface up but no connection), this may take a bit.
2024-03-18T16:45:27,305  INFO ScenarioLoaderImpl:168 loaded 139497 facilities from file:/home/muaa/Thurgau_Scenario/100pct/facilities.xml.gz
2024-03-18T16:45:27,306  INFO ScenarioLoaderImpl:187 no facility-attributes file set in config, not loading any facility attributes
2024-03-18T16:45:27,306  INFO ScenarioLoaderImpl:195 loading population from file:/home/muaa/Thurgau_Scenario/100pct/population.xml.gz
2024-03-18T16:45:27,310  INFO MatsimXmlParser:160 starting to parse xml from url file:/home/muaa/Thurgau_Scenario/100pct/population.xml.gz ...
2024-03-18T16:45:27,328  INFO PopulationReader:123 using population_v6-reader.
2024-03-18T16:45:27,329  INFO MatsimXmlParser:276 Trying to load http://www.matsim.org/files/dtd/population_v6.dtd. In some cases (e.g. network interface up but no connection), this may take a bit.
2024-03-18T16:45:27,357  WARN PopulationReaderMatsimV6:213 coordinate transformation defined both in config and in input file: setting from input file will be used
2024-03-18T16:45:27,379  INFO PopulationImpl:105  person # 1
2024-03-18T16:45:27,426  INFO PopulationImpl:105  person # 4
2024-03-18T16:45:27,436  INFO PopulationImpl:105  person # 16
2024-03-18T16:45:27,527  INFO PopulationImpl:105  person # 64
2024-03-18T16:45:27,624  INFO PopulationImpl:105  person # 256
2024-03-18T16:45:27,878  INFO PopulationImpl:105  person # 1024
2024-03-18T16:45:28,705  INFO PopulationImpl:105  person # 4096
2024-03-18T16:45:30,914  INFO PopulationImpl:105  person # 16384
2024-03-18T16:45:39,161  INFO PopulationImpl:105  person # 65536
2024-03-18T16:46:15,130  INFO PopulationImpl:105  person # 262144
2024-03-18T16:46:37,579  INFO PopulationUtils:1087  person # 398245
2024-03-18T16:46:37,579  INFO ScenarioLoaderImpl:243 no person-attributes file set in config, not loading any person attributes
2024-03-18T16:46:37,580  INFO ScenarioLoaderImpl:250 loading households from file:/home/muaa/Thurgau_Scenario/100pct/households.xml.gz
2024-03-18T16:46:37,582  INFO MatsimXmlParser:160 starting to parse xml from url file:/home/muaa/Thurgau_Scenario/100pct/households.xml.gz ...
2024-03-18T16:46:37,587  INFO MatsimXmlParser:276 Trying to load http://www.matsim.org/files/dtd/households_v1.0.xsd. In some cases (e.g. network interface up but no connection), this may take a bit.
2024-03-18T16:46:37,637  INFO MatsimXmlParser:276 Trying to load http://www.matsim.org/files/dtd/matsimCommon.xsd. In some cases (e.g. network interface up but no connection), this may take a bit.
2024-03-18T16:46:37,699  INFO Counter:69   households # 1
2024-03-18T16:46:37,701  INFO Counter:69   households # 2
2024-03-18T16:46:37,702  INFO Counter:69   households # 4
2024-03-18T16:46:37,705  INFO Counter:69   households # 8
2024-03-18T16:46:37,710  INFO Counter:69   households # 16
2024-03-18T16:46:37,717  INFO Counter:69   households # 32
2024-03-18T16:46:37,728  INFO Counter:69   households # 64
2024-03-18T16:46:37,740  INFO Counter:69   households # 128
2024-03-18T16:46:37,756  INFO Counter:69   households # 256
2024-03-18T16:46:37,778  INFO Counter:69   households # 512
2024-03-18T16:46:37,806  INFO Counter:69   households # 1024
2024-03-18T16:46:37,857  INFO Counter:69   households # 2048
2024-03-18T16:46:37,942  INFO Counter:69   households # 4096
2024-03-18T16:46:38,077  INFO Counter:69   households # 8192
2024-03-18T16:46:38,267  INFO Counter:69   households # 16384
2024-03-18T16:46:38,579  INFO Counter:69   households # 32768
2024-03-18T16:46:39,242  INFO Counter:69   households # 65536
2024-03-18T16:46:40,585  INFO Counter:69   households # 131072
2024-03-18T16:46:42,787  INFO Counter:74   households # 206371
2024-03-18T16:46:42,787  INFO ScenarioLoaderImpl:252 households loaded.
2024-03-18T16:46:42,787  INFO ScenarioLoaderImpl:273 no household-attributes file set in config, not loading any household attributes
2024-03-18T16:46:42,790  INFO MatsimXmlParser:160 starting to parse xml from url file:/home/muaa/Thurgau_Scenario/100pct/transit_schedule.xml.gz ...
2024-03-18T16:46:42,794  INFO MatsimXmlParser:276 Trying to load http://www.matsim.org/files/dtd/transitSchedule_v2.dtd. In some cases (e.g. network interface up but no connection), this may take a bit.
2024-03-18T16:46:42,961  INFO ScenarioLoaderImpl:324 loading transit vehicles from transit_vehicles.xml.gz
2024-03-18T16:46:42,963  INFO MatsimXmlParser:160 starting to parse xml from url file:/home/muaa/Thurgau_Scenario/100pct/transit_vehicles.xml.gz ...
2024-03-18T16:46:42,981  INFO MatsimXmlParser:276 Trying to load http://www.matsim.org/files/dtd/vehicleDefinitions_v2.0.xsd. In some cases (e.g. network interface up but no connection), this may take a bit.
2024-03-18T16:46:43,011  INFO MatsimXmlParser:276 Trying to load http://www.matsim.org/files/dtd/matsimCommon.xsd. In some cases (e.g. network interface up but no connection), this may take a bit.
2024-03-18T16:46:43,041  INFO MatsimXmlParser:276 Trying to load http://www.matsim.org/files/dtd/vehicleDefinitionsEnumTypes.xsd. In some cases (e.g. network interface up but no connection), this may take a bit.
2024-03-18T16:46:43,081  INFO MatsimVehicleReader$VehicleReader:75 Found following schemaLocation in vehicle definition file: http://www.matsim.org/files/dtd http://www.matsim.org/files/dtd/vehicleDefinitions_v2.0.xsd
2024-03-18T16:46:43,082  INFO VehicleReaderV2:22 Using org.matsim.vehicles.VehicleReaderV2
2024-03-18T16:46:43,095  INFO Counter:69 [VehiclesImpl] added vehicle # 1
2024-03-18T16:46:43,095  INFO Counter:69 [VehiclesImpl] added vehicle # 2
2024-03-18T16:46:43,095  INFO Counter:69 [VehiclesImpl] added vehicle # 4
2024-03-18T16:46:43,096  INFO Counter:69 [VehiclesImpl] added vehicle # 8
2024-03-18T16:46:43,096  INFO Counter:69 [VehiclesImpl] added vehicle # 16
2024-03-18T16:46:43,096  INFO Counter:69 [VehiclesImpl] added vehicle # 32
2024-03-18T16:46:43,097  INFO Counter:69 [VehiclesImpl] added vehicle # 64
2024-03-18T16:46:43,098  INFO Counter:69 [VehiclesImpl] added vehicle # 128
2024-03-18T16:46:43,100  INFO Counter:69 [VehiclesImpl] added vehicle # 256
2024-03-18T16:46:43,103  INFO Counter:69 [VehiclesImpl] added vehicle # 512
2024-03-18T16:46:43,109  INFO Counter:69 [VehiclesImpl] added vehicle # 1024
2024-03-18T16:46:43,116  INFO Counter:69 [VehiclesImpl] added vehicle # 2048
WARNING: An illegal reflective access operation has occurred
WARNING: Illegal reflective access by com.google.inject.internal.cglib.core.$ReflectUtils$1 (file:/home/muaa/2023_ABMT_Corrado/abmt2023/target/abmt2023-0.0.1-SNAPSHOT.jar) to method java.lang.ClassLoader.defineClass(java.lang.String,byte[],int,int,java.security.ProtectionDomain)
WARNING: Please consider reporting this to the maintainers of com.google.inject.internal.cglib.core.$ReflectUtils$1
WARNING: Use --illegal-access=warn to enable warnings of further illegal reflective access operations
WARNING: All illegal access operations will be denied in a future release
2024-03-18T16:46:43,677  INFO SimStepParallelEventsManagerImpl:79 number of threads=1
2024-03-18T16:46:43,681  INFO EventsManagerImpl:160 adding Event-Handler: org.matsim.core.trafficmonitoring.TravelTimeCalculator
2024-03-18T16:46:43,682  INFO EventsManagerImpl:166   org.matsim.api.core.v01.events.handler.LinkEnterEventHandler
2024-03-18T16:46:43,682  INFO EventsManagerImpl:227     > org.matsim.api.core.v01.events.LinkEnterEvent
2024-03-18T16:46:43,683  INFO EventsManagerImpl:166   org.matsim.api.core.v01.events.handler.LinkLeaveEventHandler
2024-03-18T16:46:43,683  INFO EventsManagerImpl:227     > org.matsim.api.core.v01.events.LinkLeaveEvent
2024-03-18T16:46:43,683  INFO EventsManagerImpl:166   org.matsim.api.core.v01.events.handler.VehicleEntersTrafficEventHandler
2024-03-18T16:46:43,683  INFO EventsManagerImpl:227     > org.matsim.api.core.v01.events.VehicleEntersTrafficEvent
2024-03-18T16:46:43,683  INFO EventsManagerImpl:166   org.matsim.api.core.v01.events.handler.VehicleLeavesTrafficEventHandler
2024-03-18T16:46:43,683  INFO EventsManagerImpl:227     > org.matsim.api.core.v01.events.VehicleLeavesTrafficEvent
2024-03-18T16:46:43,683  INFO EventsManagerImpl:166   org.matsim.core.api.experimental.events.handler.VehicleArrivesAtFacilityEventHandler
2024-03-18T16:46:43,683  INFO EventsManagerImpl:227     > org.matsim.core.api.experimental.events.VehicleArrivesAtFacilityEvent
2024-03-18T16:46:43,683  INFO EventsManagerImpl:166   org.matsim.api.core.v01.events.handler.VehicleAbortsEventHandler
2024-03-18T16:46:43,684  INFO EventsManagerImpl:227     > org.matsim.api.core.v01.events.VehicleAbortsEvent
2024-03-18T16:46:43,684  INFO EventsManagerImpl:176 
2024-03-18T16:46:43,684  INFO EventsManagerImpl:160 adding Event-Handler: org.matsim.core.trafficmonitoring.TravelTimeCalculator
2024-03-18T16:46:43,684  INFO EventsManagerImpl:166   org.matsim.api.core.v01.events.handler.LinkEnterEventHandler
2024-03-18T16:46:43,684  INFO EventsManagerImpl:227     > org.matsim.api.core.v01.events.LinkEnterEvent
2024-03-18T16:46:43,684  INFO EventsManagerImpl:166   org.matsim.api.core.v01.events.handler.LinkLeaveEventHandler
2024-03-18T16:46:43,684  INFO EventsManagerImpl:227     > org.matsim.api.core.v01.events.LinkLeaveEvent
2024-03-18T16:46:43,684  INFO EventsManagerImpl:166   org.matsim.api.core.v01.events.handler.VehicleEntersTrafficEventHandler
2024-03-18T16:46:43,684  INFO EventsManagerImpl:227     > org.matsim.api.core.v01.events.VehicleEntersTrafficEvent
2024-03-18T16:46:43,684  INFO EventsManagerImpl:166   org.matsim.api.core.v01.events.handler.VehicleLeavesTrafficEventHandler
2024-03-18T16:46:43,684  INFO EventsManagerImpl:227     > org.matsim.api.core.v01.events.VehicleLeavesTrafficEvent
2024-03-18T16:46:43,684  INFO EventsManagerImpl:166   org.matsim.core.api.experimental.events.handler.VehicleArrivesAtFacilityEventHandler
2024-03-18T16:46:43,685  INFO EventsManagerImpl:227     > org.matsim.core.api.experimental.events.VehicleArrivesAtFacilityEvent
2024-03-18T16:46:43,685  INFO EventsManagerImpl:166   org.matsim.api.core.v01.events.handler.VehicleAbortsEventHandler
2024-03-18T16:46:43,685  INFO EventsManagerImpl:227     > org.matsim.api.core.v01.events.VehicleAbortsEvent
2024-03-18T16:46:43,685  INFO EventsManagerImpl:176 
2024-03-18T16:46:43,687  INFO Injector:81 === printInjector start ===
2024-03-18T16:46:43,688  INFO Injector:85 org.matsim.api.core.v01.Scenario 
2024-03-18T16:46:43,689  INFO Injector:86   --> provider: ConstantFactory{value=org.matsim.core.scenario.MutableScenario@561b61ed}[Scopes.SINGLETON]
2024-03-18T16:46:43,689  INFO Injector:87   --> source: org.matsim.core.scenario.ScenarioByInstanceModule.install(ScenarioByInstanceModule.java:52)
2024-03-18T16:46:43,689  INFO Injector:89   --> scope: eager singleton
2024-03-18T16:46:43,690  INFO Injector:94   ==full==> InstanceBinding{key=Key[type=org.matsim.api.core.v01.Scenario, annotation=[none]], source=org.matsim.core.scenario.ScenarioByInstanceModule.install(ScenarioByInstanceModule.java:52), instance=org.matsim.core.scenario.MutableScenario@561b61ed}
2024-03-18T16:46:43,690  INFO Injector:96 
2024-03-18T16:46:43,690  INFO Injector:85 org.matsim.pt.transitSchedule.api.TransitSchedule 
2024-03-18T16:46:43,690  INFO Injector:86   --> provider: Key[type=org.matsim.core.scenario.ScenarioByInstanceModule$TransitScheduleProvider, annotation=[none]]
2024-03-18T16:46:43,690  INFO Injector:87   --> source: org.matsim.core.scenario.ScenarioByInstanceModule.install(ScenarioByInstanceModule.java:54)
2024-03-18T16:46:43,690  INFO Injector:89   --> scope: Scopes.NO_SCOPE
2024-03-18T16:46:43,690  INFO Injector:94   ==full==> ProviderKeyBinding{key=Key[type=org.matsim.pt.transitSchedule.api.TransitSchedule, annotation=[none]], source=org.matsim.core.scenario.ScenarioByInstanceModule.install(ScenarioByInstanceModule.java:54), scope=Scopes.NO_SCOPE, provider=Key[type=org.matsim.core.scenario.ScenarioByInstanceModule$TransitScheduleProvider, annotation=[none]]}
2024-03-18T16:46:43,690  INFO Injector:96 
2024-03-18T16:46:43,690  INFO Injector:85 org.matsim.vehicles.Vehicles 
2024-03-18T16:46:43,690  INFO Injector:86   --> provider: Key[type=org.matsim.core.scenario.ScenarioByInstanceModule$TransitVehiclesProvider, annotation=[none]]
2024-03-18T16:46:43,690  INFO Injector:87   --> source: org.matsim.core.scenario.ScenarioByInstanceModule.install(ScenarioByInstanceModule.java:55)
2024-03-18T16:46:43,691  INFO Injector:89   --> scope: Scopes.NO_SCOPE
2024-03-18T16:46:43,691  INFO Injector:94   ==full==> ProviderKeyBinding{key=Key[type=org.matsim.vehicles.Vehicles, annotation=@org.matsim.pt.transitSchedule.api.Transit], source=org.matsim.core.scenario.ScenarioByInstanceModule.install(ScenarioByInstanceModule.java:55), scope=Scopes.NO_SCOPE, provider=Key[type=org.matsim.core.scenario.ScenarioByInstanceModule$TransitVehiclesProvider, annotation=[none]]}
2024-03-18T16:46:43,691  INFO Injector:96 
2024-03-18T16:46:43,691  INFO Injector:85 org.matsim.api.core.v01.network.Network 
2024-03-18T16:46:43,693  INFO Injector:86   --> provider: @Provides org.matsim.core.scenario.ScenarioByInstanceModule.provideNetwork(ScenarioByInstanceModule.java:60)
2024-03-18T16:46:43,693  INFO Injector:87   --> source: org.matsim.api.core.v01.network.Network org.matsim.core.scenario.ScenarioByInstanceModule.provideNetwork(org.matsim.api.core.v01.Scenario)
2024-03-18T16:46:43,693  INFO Injector:89   --> scope: Scopes.NO_SCOPE
2024-03-18T16:46:43,693  INFO Injector:94   ==full==> ProviderInstanceBinding{key=Key[type=org.matsim.api.core.v01.network.Network, annotation=[none]], source=org.matsim.api.core.v01.network.Network org.matsim.core.scenario.ScenarioByInstanceModule.provideNetwork(org.matsim.api.core.v01.Scenario), scope=Scopes.NO_SCOPE, provider=@Provides org.matsim.core.scenario.ScenarioByInstanceModule.provideNetwork(ScenarioByInstanceModule.java:60)}
2024-03-18T16:46:43,693  INFO Injector:96 
2024-03-18T16:46:43,693  INFO Injector:85 org.matsim.api.core.v01.population.Population 
2024-03-18T16:46:43,694  INFO Injector:86   --> provider: @Provides org.matsim.core.scenario.ScenarioByInstanceModule.providePopulation(ScenarioByInstanceModule.java:64)
2024-03-18T16:46:43,694  INFO Injector:87   --> source: org.matsim.api.core.v01.population.Population org.matsim.core.scenario.ScenarioByInstanceModule.providePopulation(org.matsim.api.core.v01.Scenario)
2024-03-18T16:46:43,694  INFO Injector:89   --> scope: Scopes.NO_SCOPE
2024-03-18T16:46:43,694  INFO Injector:94   ==full==> ProviderInstanceBinding{key=Key[type=org.matsim.api.core.v01.population.Population, annotation=[none]], source=org.matsim.api.core.v01.population.Population org.matsim.core.scenario.ScenarioByInstanceModule.providePopulation(org.matsim.api.core.v01.Scenario), scope=Scopes.NO_SCOPE, provider=@Provides org.matsim.core.scenario.ScenarioByInstanceModule.providePopulation(ScenarioByInstanceModule.java:64)}
2024-03-18T16:46:43,694  INFO Injector:96 
2024-03-18T16:46:43,694  INFO Injector:85 org.matsim.api.core.v01.population.PopulationFactory 
2024-03-18T16:46:43,694  INFO Injector:86   --> provider: @Provides org.matsim.core.scenario.ScenarioByInstanceModule.providePopulationFactory(ScenarioByInstanceModule.java:68)
2024-03-18T16:46:43,694  INFO Injector:87   --> source: org.matsim.api.core.v01.population.PopulationFactory org.matsim.core.scenario.ScenarioByInstanceModule.providePopulationFactory(org.matsim.api.core.v01.population.Population)
2024-03-18T16:46:43,694  INFO Injector:89   --> scope: Scopes.NO_SCOPE
2024-03-18T16:46:43,694  INFO Injector:94   ==full==> ProviderInstanceBinding{key=Key[type=org.matsim.api.core.v01.population.PopulationFactory, annotation=[none]], source=org.matsim.api.core.v01.population.PopulationFactory org.matsim.core.scenario.ScenarioByInstanceModule.providePopulationFactory(org.matsim.api.core.v01.population.Population), scope=Scopes.NO_SCOPE, provider=@Provides org.matsim.core.scenario.ScenarioByInstanceModule.providePopulationFactory(ScenarioByInstanceModule.java:68)}
2024-03-18T16:46:43,694  INFO Injector:96 
2024-03-18T16:46:43,694  INFO Injector:85 org.matsim.facilities.ActivityFacilities 
2024-03-18T16:46:43,694  INFO Injector:86   --> provider: @Provides org.matsim.core.scenario.ScenarioByInstanceModule.provideActivityFacilities(ScenarioByInstanceModule.java:72)
2024-03-18T16:46:43,694  INFO Injector:87   --> source: org.matsim.facilities.ActivityFacilities org.matsim.core.scenario.ScenarioByInstanceModule.provideActivityFacilities(org.matsim.api.core.v01.Scenario)
2024-03-18T16:46:43,694  INFO Injector:89   --> scope: Scopes.NO_SCOPE
2024-03-18T16:46:43,695  INFO Injector:94   ==full==> ProviderInstanceBinding{key=Key[type=org.matsim.facilities.ActivityFacilities, annotation=[none]], source=org.matsim.facilities.ActivityFacilities org.matsim.core.scenario.ScenarioByInstanceModule.provideActivityFacilities(org.matsim.api.core.v01.Scenario), scope=Scopes.NO_SCOPE, provider=@Provides org.matsim.core.scenario.ScenarioByInstanceModule.provideActivityFacilities(ScenarioByInstanceModule.java:72)}
2024-03-18T16:46:43,695  INFO Injector:96 
2024-03-18T16:46:43,695  INFO Injector:85 org.matsim.households.Households 
2024-03-18T16:46:43,695  INFO Injector:86   --> provider: @Provides org.matsim.core.scenario.ScenarioByInstanceModule.provideHouseholds(ScenarioByInstanceModule.java:77)
2024-03-18T16:46:43,695  INFO Injector:87   --> source: org.matsim.households.Households org.matsim.core.scenario.ScenarioByInstanceModule.provideHouseholds(org.matsim.api.core.v01.Scenario)
2024-03-18T16:46:43,695  INFO Injector:89   --> scope: Scopes.NO_SCOPE
2024-03-18T16:46:43,695  INFO Injector:94   ==full==> ProviderInstanceBinding{key=Key[type=org.matsim.households.Households, annotation=[none]], source=org.matsim.households.Households org.matsim.core.scenario.ScenarioByInstanceModule.provideHouseholds(org.matsim.api.core.v01.Scenario), scope=Scopes.NO_SCOPE, provider=@Provides org.matsim.core.scenario.ScenarioByInstanceModule.provideHouseholds(ScenarioByInstanceModule.java:77)}
2024-03-18T16:46:43,695  INFO Injector:96 
2024-03-18T16:46:43,695  INFO Injector:85 org.matsim.vehicles.Vehicles 
2024-03-18T16:46:43,695  INFO Injector:86   --> provider: @Provides org.matsim.core.scenario.ScenarioByInstanceModule.provideVehicles(ScenarioByInstanceModule.java:82)
2024-03-18T16:46:43,695  INFO Injector:87   --> source: org.matsim.vehicles.Vehicles org.matsim.core.scenario.ScenarioByInstanceModule.provideVehicles(org.matsim.api.core.v01.Scenario)
2024-03-18T16:46:43,695  INFO Injector:89   --> scope: Scopes.NO_SCOPE
2024-03-18T16:46:43,695  INFO Injector:94   ==full==> ProviderInstanceBinding{key=Key[type=org.matsim.vehicles.Vehicles, annotation=[none]], source=org.matsim.vehicles.Vehicles org.matsim.core.scenario.ScenarioByInstanceModule.provideVehicles(org.matsim.api.core.v01.Scenario), scope=Scopes.NO_SCOPE, provider=@Provides org.matsim.core.scenario.ScenarioByInstanceModule.provideVehicles(ScenarioByInstanceModule.java:82)}
2024-03-18T16:46:43,695  INFO Injector:96 
2024-03-18T16:46:43,695  INFO Injector:85 org.matsim.lanes.Lanes 
2024-03-18T16:46:43,696  INFO Injector:86   --> provider: @Provides org.matsim.core.scenario.ScenarioByInstanceModule.provideLanes(ScenarioByInstanceModule.java:87)
2024-03-18T16:46:43,696  INFO Injector:87   --> source: org.matsim.lanes.Lanes org.matsim.core.scenario.ScenarioByInstanceModule.provideLanes(org.matsim.api.core.v01.Scenario)
2024-03-18T16:46:43,696  INFO Injector:89   --> scope: Scopes.NO_SCOPE
2024-03-18T16:46:43,696  INFO Injector:94   ==full==> ProviderInstanceBinding{key=Key[type=org.matsim.lanes.Lanes, annotation=[none]], source=org.matsim.lanes.Lanes org.matsim.core.scenario.ScenarioByInstanceModule.provideLanes(org.matsim.api.core.v01.Scenario), scope=Scopes.NO_SCOPE, provider=@Provides org.matsim.core.scenario.ScenarioByInstanceModule.provideLanes(ScenarioByInstanceModule.java:87)}
2024-03-18T16:46:43,696  INFO Injector:96 
2024-03-18T16:46:43,696  INFO Injector:85 org.matsim.core.router.MainModeIdentifier 
2024-03-18T16:46:43,696  INFO Injector:86   --> provider: FactoryProxy{key=Key[type=org.matsim.core.router.MainModeIdentifier, annotation=[none]], provider=com.google.inject.internal.ConstructorBindingImpl$Factory@12fcc71f}
2024-03-18T16:46:43,696  INFO Injector:87   --> source: org.eqasim.core.components.EqasimComponentsModule.install(EqasimComponentsModule.java:9)
2024-03-18T16:46:43,696  INFO Injector:89   --> scope: Scopes.NO_SCOPE
2024-03-18T16:46:43,696  INFO Injector:92   --> target: Key[type=org.eqasim.core.components.EqasimMainModeIdentifier, annotation=[none]]
2024-03-18T16:46:43,696  INFO Injector:94   ==full==> LinkedKeyBinding{key=Key[type=org.matsim.core.router.MainModeIdentifier, annotation=[none]], source=org.eqasim.core.components.EqasimComponentsModule.install(EqasimComponentsModule.java:9), scope=Scopes.NO_SCOPE, target=Key[type=org.eqasim.core.components.EqasimMainModeIdentifier, annotation=[none]]}
2024-03-18T16:46:43,696  INFO Injector:96 
2024-03-18T16:46:43,697  INFO Injector:85 org.matsim.core.replanning.PlanStrategy @com.google.inject.name.Named(value="DiscreteModeChoice")
2024-03-18T16:46:43,697  INFO Injector:86   --> provider: Key[type=org.matsim.contribs.discrete_mode_choice.replanning.DiscreteModeChoiceStrategyProvider, annotation=[none]]
2024-03-18T16:46:43,697  INFO Injector:87   --> source: org.matsim.contribs.discrete_mode_choice.modules.DiscreteModeChoiceModule.install(DiscreteModeChoiceModule.java:26)
2024-03-18T16:46:43,697  INFO Injector:89   --> scope: Scopes.NO_SCOPE
2024-03-18T16:46:43,697  INFO Injector:94   ==full==> ProviderKeyBinding{key=Key[type=org.matsim.core.replanning.PlanStrategy, annotation=@com.google.inject.name.Named(value="DiscreteModeChoice")], source=org.matsim.contribs.discrete_mode_choice.modules.DiscreteModeChoiceModule.install(DiscreteModeChoiceModule.java:26), scope=Scopes.NO_SCOPE, provider=Key[type=org.matsim.contribs.discrete_mode_choice.replanning.DiscreteModeChoiceStrategyProvider, annotation=[none]]}
2024-03-18T16:46:43,697  INFO Injector:96 
2024-03-18T16:46:43,697  INFO Injector:85 org.matsim.core.replanning.selectors.PlanSelector<org.matsim.api.core.v01.population.Plan, org.matsim.api.core.v01.population.Person> 
2024-03-18T16:46:43,697  INFO Injector:86   --> provider: FactoryProxy{key=Key[type=org.matsim.core.replanning.selectors.PlanSelector<org.matsim.api.core.v01.population.Plan, org.matsim.api.core.v01.population.Person>, annotation=[none]], provider=com.google.inject.internal.ConstructorBindingImpl$Factory@5679e96b}
2024-03-18T16:46:43,697  INFO Injector:87   --> source: org.matsim.contribs.discrete_mode_choice.modules.DiscreteModeChoiceModule.install(DiscreteModeChoiceModule.java:29)
2024-03-18T16:46:43,697  INFO Injector:89   --> scope: Scopes.NO_SCOPE
2024-03-18T16:46:43,697  INFO Injector:92   --> target: Key[type=org.matsim.contribs.discrete_mode_choice.replanning.NonSelectedPlanSelector, annotation=[none]]
2024-03-18T16:46:43,697  INFO Injector:94   ==full==> LinkedKeyBinding{key=Key[type=org.matsim.core.replanning.selectors.PlanSelector<org.matsim.api.core.v01.population.Plan, org.matsim.api.core.v01.population.Person>, annotation=[none]], source=org.matsim.contribs.discrete_mode_choice.modules.DiscreteModeChoiceModule.install(DiscreteModeChoiceModule.java:29), scope=Scopes.NO_SCOPE, target=Key[type=org.matsim.contribs.discrete_mode_choice.replanning.NonSelectedPlanSelector, annotation=[none]]}
2024-03-18T16:46:43,697  INFO Injector:96 
2024-03-18T16:46:43,697  INFO Injector:85 org.matsim.core.controler.listener.ControlerListener @com.google.inject.internal.Element(setName=,uniqueId=143, type=MULTIBINDER, keyType=)
2024-03-18T16:46:43,698  INFO Injector:86   --> provider: FactoryProxy{key=Key[type=org.matsim.core.controler.listener.ControlerListener, annotation=@com.google.inject.internal.Element(setName=,uniqueId=143, type=MULTIBINDER, keyType=)], provider=com.google.inject.internal.ConstructorBindingImpl$Factory@3ed7821}
2024-03-18T16:46:43,698  INFO Injector:87   --> source: org.matsim.contribs.discrete_mode_choice.modules.DiscreteModeChoiceModule.install(DiscreteModeChoiceModule.java:33)
2024-03-18T16:46:43,698  INFO Injector:89   --> scope: Scopes.NO_SCOPE
2024-03-18T16:46:43,698  INFO Injector:92   --> target: Key[type=org.matsim.contribs.discrete_mode_choice.modules.utils.ModeChoiceInTheLoopChecker, annotation=[none]]
2024-03-18T16:46:43,698  INFO Injector:94   ==full==> LinkedKeyBinding{key=Key[type=org.matsim.core.controler.listener.ControlerListener, annotation=@com.google.inject.internal.Element(setName=,uniqueId=143, type=MULTIBINDER, keyType=)], source=org.matsim.contribs.discrete_mode_choice.modules.DiscreteModeChoiceModule.install(DiscreteModeChoiceModule.java:33), scope=Scopes.NO_SCOPE, target=Key[type=org.matsim.contribs.discrete_mode_choice.modules.utils.ModeChoiceInTheLoopChecker, annotation=[none]]}
2024-03-18T16:46:43,698  INFO Injector:96 
2024-03-18T16:46:43,698  INFO Injector:85 org.matsim.contribs.discrete_mode_choice.model.mode_availability.ModeAvailability @com.google.inject.internal.Element(setName=,uniqueId=144, type=MAPBINDER, keyType=java.lang.String)
2024-03-18T16:46:43,699  INFO Injector:86   --> provider: FactoryProxy{key=Key[type=org.matsim.contribs.discrete_mode_choice.model.mode_availability.ModeAvailability, annotation=@com.google.inject.internal.Element(setName=,uniqueId=144, type=MAPBINDER, keyType=java.lang.String)], provider=@Provides org.matsim.contribs.discrete_mode_choice.modules.ModeAvailabilityModule.provideDefaultModeAvailability(ModeAvailabilityModule.java:36)}
2024-03-18T16:46:43,699  INFO Injector:87   --> source: org.matsim.contribs.discrete_mode_choice.modules.AbstractDiscreteModeChoiceExtension.bindModeAvailability(AbstractDiscreteModeChoiceExtension.java:90)
2024-03-18T16:46:43,699  INFO Injector:89   --> scope: Scopes.NO_SCOPE
2024-03-18T16:46:43,699  INFO Injector:92   --> target: Key[type=org.matsim.contribs.discrete_mode_choice.model.mode_availability.DefaultModeAvailability, annotation=[none]]
2024-03-18T16:46:43,699  INFO Injector:94   ==full==> LinkedKeyBinding{key=Key[type=org.matsim.contribs.discrete_mode_choice.model.mode_availability.ModeAvailability, annotation=@com.google.inject.internal.Element(setName=,uniqueId=144, type=MAPBINDER, keyType=java.lang.String)], source=org.matsim.contribs.discrete_mode_choice.modules.AbstractDiscreteModeChoiceExtension.bindModeAvailability(AbstractDiscreteModeChoiceExtension.java:90), scope=Scopes.NO_SCOPE, target=Key[type=org.matsim.contribs.discrete_mode_choice.model.mode_availability.DefaultModeAvailability, annotation=[none]]}
2024-03-18T16:46:43,699  INFO Injector:96 
2024-03-18T16:46:43,699  INFO Injector:85 org.matsim.contribs.discrete_mode_choice.model.mode_availability.ModeAvailability @com.google.inject.internal.Element(setName=,uniqueId=146, type=MAPBINDER, keyType=java.lang.String)
2024-03-18T16:46:43,700  INFO Injector:86   --> provider: FactoryProxy{key=Key[type=org.matsim.contribs.discrete_mode_choice.model.mode_availability.ModeAvailability, annotation=@com.google.inject.internal.Element(setName=,uniqueId=146, type=MAPBINDER, keyType=java.lang.String)], provider=@Provides org.matsim.contribs.discrete_mode_choice.modules.ModeAvailabilityModule.provideCarModeAvailability(ModeAvailabilityModule.java:42)}
2024-03-18T16:46:43,700  INFO Injector:87   --> source: org.matsim.contribs.discrete_mode_choice.modules.AbstractDiscreteModeChoiceExtension.bindModeAvailability(AbstractDiscreteModeChoiceExtension.java:90)
2024-03-18T16:46:43,700  INFO Injector:89   --> scope: Scopes.NO_SCOPE
2024-03-18T16:46:43,700  INFO Injector:92   --> target: Key[type=org.matsim.contribs.discrete_mode_choice.model.mode_availability.CarModeAvailability, annotation=[none]]
2024-03-18T16:46:43,700  INFO Injector:94   ==full==> LinkedKeyBinding{key=Key[type=org.matsim.contribs.discrete_mode_choice.model.mode_availability.ModeAvailability, annotation=@com.google.inject.internal.Element(setName=,uniqueId=146, type=MAPBINDER, keyType=java.lang.String)], source=org.matsim.contribs.discrete_mode_choice.modules.AbstractDiscreteModeChoiceExtension.bindModeAvailability(AbstractDiscreteModeChoiceExtension.java:90), scope=Scopes.NO_SCOPE, target=Key[type=org.matsim.contribs.discrete_mode_choice.model.mode_availability.CarModeAvailability, annotation=[none]]}
2024-03-18T16:46:43,700  INFO Injector:96 
2024-03-18T16:46:43,700  INFO Injector:85 org.matsim.contribs.discrete_mode_choice.model.mode_availability.CarModeAvailability 
2024-03-18T16:46:43,700  INFO Injector:86   --> provider: @Provides org.matsim.contribs.discrete_mode_choice.modules.ModeAvailabilityModule.provideCarModeAvailability(ModeAvailabilityModule.java:42)
2024-03-18T16:46:43,700  INFO Injector:87   --> source: public org.matsim.contribs.discrete_mode_choice.model.mode_availability.CarModeAvailability org.matsim.contribs.discrete_mode_choice.modules.ModeAvailabilityModule.provideCarModeAvailability(org.matsim.contribs.discrete_mode_choice.modules.config.DiscreteModeChoiceConfigGroup)
2024-03-18T16:46:43,700  INFO Injector:89   --> scope: Scopes.NO_SCOPE
2024-03-18T16:46:43,700  INFO Injector:94   ==full==> ProviderInstanceBinding{key=Key[type=org.matsim.contribs.discrete_mode_choice.model.mode_availability.CarModeAvailability, annotation=[none]], source=public org.matsim.contribs.discrete_mode_choice.model.mode_availability.CarModeAvailability org.matsim.contribs.discrete_mode_choice.modules.ModeAvailabilityModule.provideCarModeAvailability(org.matsim.contribs.discrete_mode_choice.modules.config.DiscreteModeChoiceConfigGroup), scope=Scopes.NO_SCOPE, provider=@Provides org.matsim.contribs.discrete_mode_choice.modules.ModeAvailabilityModule.provideCarModeAvailability(ModeAvailabilityModule.java:42)}
2024-03-18T16:46:43,700  INFO Injector:96 
2024-03-18T16:46:43,700  INFO Injector:85 org.matsim.contribs.discrete_mode_choice.model.mode_availability.DefaultModeAvailability 
2024-03-18T16:46:43,700  INFO Injector:86   --> provider: @Provides org.matsim.contribs.discrete_mode_choice.modules.ModeAvailabilityModule.provideDefaultModeAvailability(ModeAvailabilityModule.java:36)
2024-03-18T16:46:43,700  INFO Injector:87   --> source: public org.matsim.contribs.discrete_mode_choice.model.mode_availability.DefaultModeAvailability org.matsim.contribs.discrete_mode_choice.modules.ModeAvailabilityModule.provideDefaultModeAvailability(org.matsim.contribs.discrete_mode_choice.modules.config.DiscreteModeChoiceConfigGroup)
2024-03-18T16:46:43,700  INFO Injector:89   --> scope: Scopes.NO_SCOPE
2024-03-18T16:46:43,701  INFO Injector:94   ==full==> ProviderInstanceBinding{key=Key[type=org.matsim.contribs.discrete_mode_choice.model.mode_availability.DefaultModeAvailability, annotation=[none]], source=public org.matsim.contribs.discrete_mode_choice.model.mode_availability.DefaultModeAvailability org.matsim.contribs.discrete_mode_choice.modules.ModeAvailabilityModule.provideDefaultModeAvailability(org.matsim.contribs.discrete_mode_choice.modules.config.DiscreteModeChoiceConfigGroup), scope=Scopes.NO_SCOPE, provider=@Provides org.matsim.contribs.discrete_mode_choice.modules.ModeAvailabilityModule.provideDefaultModeAvailability(ModeAvailabilityModule.java:36)}
2024-03-18T16:46:43,701  INFO Injector:96 
2024-03-18T16:46:43,701  INFO Injector:85 org.matsim.contribs.discrete_mode_choice.model.mode_availability.ModeAvailability 
2024-03-18T16:46:43,701  INFO Injector:86   --> provider: @Provides org.matsim.contribs.discrete_mode_choice.modules.ModeAvailabilityModule.provideModeAvailability(ModeAvailabilityModule.java:49)
2024-03-18T16:46:43,701  INFO Injector:87   --> source: public org.matsim.contribs.discrete_mode_choice.model.mode_availability.ModeAvailability org.matsim.contribs.discrete_mode_choice.modules.ModeAvailabilityModule.provideModeAvailability(org.matsim.contribs.discrete_mode_choice.modules.config.DiscreteModeChoiceConfigGroup,java.util.Map)
2024-03-18T16:46:43,701  INFO Injector:89   --> scope: Scopes.NO_SCOPE
2024-03-18T16:46:43,701  INFO Injector:94   ==full==> ProviderInstanceBinding{key=Key[type=org.matsim.contribs.discrete_mode_choice.model.mode_availability.ModeAvailability, annotation=[none]], source=public org.matsim.contribs.discrete_mode_choice.model.mode_availability.ModeAvailability org.matsim.contribs.discrete_mode_choice.modules.ModeAvailabilityModule.provideModeAvailability(org.matsim.contribs.discrete_mode_choice.modules.config.DiscreteModeChoiceConfigGroup,java.util.Map), scope=Scopes.NO_SCOPE, provider=@Provides org.matsim.contribs.discrete_mode_choice.modules.ModeAvailabilityModule.provideModeAvailability(ModeAvailabilityModule.java:49)}
2024-03-18T16:46:43,701  INFO Injector:96 
2024-03-18T16:46:43,701  INFO Injector:85 org.matsim.contribs.discrete_mode_choice.model.trip_based.TripEstimator @com.google.inject.internal.Element(setName=,uniqueId=148, type=MAPBINDER, keyType=java.lang.String)
2024-03-18T16:46:43,702  INFO Injector:86   --> provider: FactoryProxy{key=Key[type=org.matsim.contribs.discrete_mode_choice.model.trip_based.TripEstimator, annotation=@com.google.inject.internal.Element(setName=,uniqueId=148, type=MAPBINDER, keyType=java.lang.String)], provider=@Provides org.matsim.contribs.discrete_mode_choice.modules.EstimatorModule.provideMATSimTripScoringEstimator(EstimatorModule.java:112)}
2024-03-18T16:46:43,702  INFO Injector:87   --> source: org.matsim.contribs.discrete_mode_choice.modules.AbstractDiscreteModeChoiceExtension.bindTripEstimator(AbstractDiscreteModeChoiceExtension.java:66)
2024-03-18T16:46:43,702  INFO Injector:89   --> scope: Scopes.NO_SCOPE
2024-03-18T16:46:43,702  INFO Injector:92   --> target: Key[type=org.matsim.contribs.discrete_mode_choice.components.estimators.MATSimTripScoringEstimator, annotation=[none]]
2024-03-18T16:46:43,702  INFO Injector:94   ==full==> LinkedKeyBinding{key=Key[type=org.matsim.contribs.discrete_mode_choice.model.trip_based.TripEstimator, annotation=@com.google.inject.internal.Element(setName=,uniqueId=148, type=MAPBINDER, keyType=java.lang.String)], source=org.matsim.contribs.discrete_mode_choice.modules.AbstractDiscreteModeChoiceExtension.bindTripEstimator(AbstractDiscreteModeChoiceExtension.java:66), scope=Scopes.NO_SCOPE, target=Key[type=org.matsim.contribs.discrete_mode_choice.components.estimators.MATSimTripScoringEstimator, annotation=[none]]}
2024-03-18T16:46:43,702  INFO Injector:96 
2024-03-18T16:46:43,702  INFO Injector:85 org.matsim.contribs.discrete_mode_choice.model.trip_based.TripEstimator @com.google.inject.internal.Element(setName=,uniqueId=150, type=MAPBINDER, keyType=java.lang.String)
2024-03-18T16:46:43,702  INFO Injector:86   --> provider: FactoryProxy{key=Key[type=org.matsim.contribs.discrete_mode_choice.model.trip_based.TripEstimator, annotation=@com.google.inject.internal.Element(setName=,uniqueId=150, type=MAPBINDER, keyType=java.lang.String)], provider=@Provides org.matsim.contribs.discrete_mode_choice.modules.EstimatorModule.provideNullTripEstimator(EstimatorModule.java:92)[Scopes.SINGLETON]}
2024-03-18T16:46:43,702  INFO Injector:87   --> source: org.matsim.contribs.discrete_mode_choice.modules.AbstractDiscreteModeChoiceExtension.bindTripEstimator(AbstractDiscreteModeChoiceExtension.java:66)
2024-03-18T16:46:43,703  INFO Injector:89   --> scope: Scopes.NO_SCOPE
2024-03-18T16:46:43,703  INFO Injector:92   --> target: Key[type=org.matsim.contribs.discrete_mode_choice.components.estimators.UniformTripEstimator, annotation=[none]]
2024-03-18T16:46:43,703  INFO Injector:94   ==full==> LinkedKeyBinding{key=Key[type=org.matsim.contribs.discrete_mode_choice.model.trip_based.TripEstimator, annotation=@com.google.inject.internal.Element(setName=,uniqueId=150, type=MAPBINDER, keyType=java.lang.String)], source=org.matsim.contribs.discrete_mode_choice.modules.AbstractDiscreteModeChoiceExtension.bindTripEstimator(AbstractDiscreteModeChoiceExtension.java:66), scope=Scopes.NO_SCOPE, target=Key[type=org.matsim.contribs.discrete_mode_choice.components.estimators.UniformTripEstimator, annotation=[none]]}
2024-03-18T16:46:43,703  INFO Injector:96 
2024-03-18T16:46:43,703  INFO Injector:85 org.matsim.contribs.discrete_mode_choice.model.tour_based.TourEstimator @com.google.inject.internal.Element(setName=,uniqueId=152, type=MAPBINDER, keyType=java.lang.String)
2024-03-18T16:46:43,703  INFO Injector:86   --> provider: FactoryProxy{key=Key[type=org.matsim.contribs.discrete_mode_choice.model.tour_based.TourEstimator, annotation=@com.google.inject.internal.Element(setName=,uniqueId=152, type=MAPBINDER, keyType=java.lang.String)], provider=@Provides org.matsim.contribs.discrete_mode_choice.modules.EstimatorModule.provideMATSimDayScoringEstimator(EstimatorModule.java:121)}
2024-03-18T16:46:43,703  INFO Injector:87   --> source: org.matsim.contribs.discrete_mode_choice.modules.AbstractDiscreteModeChoiceExtension.bindTourEstimator(AbstractDiscreteModeChoiceExtension.java:62)
2024-03-18T16:46:43,703  INFO Injector:89   --> scope: Scopes.NO_SCOPE
2024-03-18T16:46:43,703  INFO Injector:92   --> target: Key[type=org.matsim.contribs.discrete_mode_choice.components.estimators.MATSimDayScoringEstimator, annotation=[none]]
2024-03-18T16:46:43,703  INFO Injector:94   ==full==> LinkedKeyBinding{key=Key[type=org.matsim.contribs.discrete_mode_choice.model.tour_based.TourEstimator, annotation=@com.google.inject.internal.Element(setName=,uniqueId=152, type=MAPBINDER, keyType=java.lang.String)], source=org.matsim.contribs.discrete_mode_choice.modules.AbstractDiscreteModeChoiceExtension.bindTourEstimator(AbstractDiscreteModeChoiceExtension.java:62), scope=Scopes.NO_SCOPE, target=Key[type=org.matsim.contribs.discrete_mode_choice.components.estimators.MATSimDayScoringEstimator, annotation=[none]]}
2024-03-18T16:46:43,703  INFO Injector:96 
2024-03-18T16:46:43,703  INFO Injector:85 org.matsim.contribs.discrete_mode_choice.model.tour_based.TourEstimator @com.google.inject.internal.Element(setName=,uniqueId=154, type=MAPBINDER, keyType=java.lang.String)
2024-03-18T16:46:43,703  INFO Injector:86   --> provider: FactoryProxy{key=Key[type=org.matsim.contribs.discrete_mode_choice.model.tour_based.TourEstimator, annotation=@com.google.inject.internal.Element(setName=,uniqueId=154, type=MAPBINDER, keyType=java.lang.String)], provider=@Provides org.matsim.contribs.discrete_mode_choice.modules.EstimatorModule.provideCumulativeTourEstimator(EstimatorModule.java:128)}
2024-03-18T16:46:43,703  INFO Injector:87   --> source: org.matsim.contribs.discrete_mode_choice.modules.AbstractDiscreteModeChoiceExtension.bindTourEstimator(AbstractDiscreteModeChoiceExtension.java:62)
2024-03-18T16:46:43,703  INFO Injector:89   --> scope: Scopes.NO_SCOPE
2024-03-18T16:46:43,703  INFO Injector:92   --> target: Key[type=org.matsim.contribs.discrete_mode_choice.components.estimators.CumulativeTourEstimator, annotation=[none]]
2024-03-18T16:46:43,704  INFO Injector:94   ==full==> LinkedKeyBinding{key=Key[type=org.matsim.contribs.discrete_mode_choice.model.tour_based.TourEstimator, annotation=@com.google.inject.internal.Element(setName=,uniqueId=154, type=MAPBINDER, keyType=java.lang.String)], source=org.matsim.contribs.discrete_mode_choice.modules.AbstractDiscreteModeChoiceExtension.bindTourEstimator(AbstractDiscreteModeChoiceExtension.java:62), scope=Scopes.NO_SCOPE, target=Key[type=org.matsim.contribs.discrete_mode_choice.components.estimators.CumulativeTourEstimator, annotation=[none]]}
2024-03-18T16:46:43,704  INFO Injector:96 
2024-03-18T16:46:43,704  INFO Injector:85 org.matsim.contribs.discrete_mode_choice.model.tour_based.TourEstimator @com.google.inject.internal.Element(setName=,uniqueId=156, type=MAPBINDER, keyType=java.lang.String)
2024-03-18T16:46:43,704  INFO Injector:86   --> provider: FactoryProxy{key=Key[type=org.matsim.contribs.discrete_mode_choice.model.tour_based.TourEstimator, annotation=@com.google.inject.internal.Element(setName=,uniqueId=156, type=MAPBINDER, keyType=java.lang.String)], provider=@Provides org.matsim.contribs.discrete_mode_choice.modules.EstimatorModule.proideNullTourEstimator(EstimatorModule.java:98)[Scopes.SINGLETON]}
2024-03-18T16:46:43,704  INFO Injector:87   --> source: org.matsim.contribs.discrete_mode_choice.modules.AbstractDiscreteModeChoiceExtension.bindTourEstimator(AbstractDiscreteModeChoiceExtension.java:62)
2024-03-18T16:46:43,704  INFO Injector:89   --> scope: Scopes.NO_SCOPE
2024-03-18T16:46:43,704  INFO Injector:92   --> target: Key[type=org.matsim.contribs.discrete_mode_choice.components.estimators.UniformTourEstimator, annotation=[none]]
2024-03-18T16:46:43,704  INFO Injector:94   ==full==> LinkedKeyBinding{key=Key[type=org.matsim.contribs.discrete_mode_choice.model.tour_based.TourEstimator, annotation=@com.google.inject.internal.Element(setName=,uniqueId=156, type=MAPBINDER, keyType=java.lang.String)], source=org.matsim.contribs.discrete_mode_choice.modules.AbstractDiscreteModeChoiceExtension.bindTourEstimator(AbstractDiscreteModeChoiceExtension.java:62), scope=Scopes.NO_SCOPE, target=Key[type=org.matsim.contribs.discrete_mode_choice.components.estimators.UniformTourEstimator, annotation=[none]]}
2024-03-18T16:46:43,704  INFO Injector:96 
2024-03-18T16:46:43,704  INFO Injector:85 org.matsim.contribs.discrete_mode_choice.components.utils.PTWaitingTimeEstimator 
2024-03-18T16:46:43,705  INFO Injector:86   --> provider: FactoryProxy{key=Key[type=org.matsim.contribs.discrete_mode_choice.components.utils.PTWaitingTimeEstimator, annotation=[none]], provider=@Provides org.matsim.contribs.discrete_mode_choice.modules.utils.ScheduleWaitingTimeEstimatorModule.provideScheduleWaitingTimeEstimator(ScheduleWaitingTimeEstimatorModule.java:28)[Scopes.SINGLETON]}
2024-03-18T16:46:43,705  INFO Injector:87   --> source: org.matsim.contribs.discrete_mode_choice.modules.utils.ScheduleWaitingTimeEstimatorModule.configure(ScheduleWaitingTimeEstimatorModule.java:22)
2024-03-18T16:46:43,705  INFO Injector:89   --> scope: Scopes.NO_SCOPE
2024-03-18T16:46:43,705  INFO Injector:92   --> target: Key[type=org.matsim.contribs.discrete_mode_choice.components.utils.ScheduleWaitingTimeEstimator, annotation=[none]]
2024-03-18T16:46:43,705  INFO Injector:94   ==full==> LinkedKeyBinding{key=Key[type=org.matsim.contribs.discrete_mode_choice.components.utils.PTWaitingTimeEstimator, annotation=[none]], source=org.matsim.contribs.discrete_mode_choice.modules.utils.ScheduleWaitingTimeEstimatorModule.configure(ScheduleWaitingTimeEstimatorModule.java:22), scope=Scopes.NO_SCOPE, target=Key[type=org.matsim.contribs.discrete_mode_choice.components.utils.ScheduleWaitingTimeEstimator, annotation=[none]]}
2024-03-18T16:46:43,705  INFO Injector:96 
2024-03-18T16:46:43,705  INFO Injector:85 org.matsim.contribs.discrete_mode_choice.components.utils.ScheduleWaitingTimeEstimator 
2024-03-18T16:46:43,705  INFO Injector:86   --> provider: @Provides org.matsim.contribs.discrete_mode_choice.modules.utils.ScheduleWaitingTimeEstimatorModule.provideScheduleWaitingTimeEstimator(ScheduleWaitingTimeEstimatorModule.java:28)[Scopes.SINGLETON]
2024-03-18T16:46:43,705  INFO Injector:87   --> source: public org.matsim.contribs.discrete_mode_choice.components.utils.ScheduleWaitingTimeEstimator org.matsim.contribs.discrete_mode_choice.modules.utils.ScheduleWaitingTimeEstimatorModule.provideScheduleWaitingTimeEstimator(org.matsim.pt.transitSchedule.api.TransitSchedule)
2024-03-18T16:46:43,705  INFO Injector:89   --> scope: Scopes.SINGLETON
2024-03-18T16:46:43,705  INFO Injector:94   ==full==> ProviderInstanceBinding{key=Key[type=org.matsim.contribs.discrete_mode_choice.components.utils.ScheduleWaitingTimeEstimator, annotation=[none]], source=public org.matsim.contribs.discrete_mode_choice.components.utils.ScheduleWaitingTimeEstimator org.matsim.contribs.discrete_mode_choice.modules.utils.ScheduleWaitingTimeEstimatorModule.provideScheduleWaitingTimeEstimator(org.matsim.pt.transitSchedule.api.TransitSchedule), scope=Scopes.SINGLETON, provider=@Provides org.matsim.contribs.discrete_mode_choice.modules.utils.ScheduleWaitingTimeEstimatorModule.provideScheduleWaitingTimeEstimator(ScheduleWaitingTimeEstimatorModule.java:28)}
2024-03-18T16:46:43,705  INFO Injector:96 
2024-03-18T16:46:43,706  INFO Injector:85 org.matsim.contribs.discrete_mode_choice.components.estimators.UniformTourEstimator 
2024-03-18T16:46:43,706  INFO Injector:86   --> provider: @Provides org.matsim.contribs.discrete_mode_choice.modules.EstimatorModule.proideNullTourEstimator(EstimatorModule.java:98)[Scopes.SINGLETON]
2024-03-18T16:46:43,706  INFO Injector:87   --> source: public org.matsim.contribs.discrete_mode_choice.components.estimators.UniformTourEstimator org.matsim.contribs.discrete_mode_choice.modules.EstimatorModule.proideNullTourEstimator(org.matsim.contribs.discrete_mode_choice.replanning.time_interpreter.TimeInterpreter$Factory)
2024-03-18T16:46:43,706  INFO Injector:89   --> scope: Scopes.SINGLETON
2024-03-18T16:46:43,706  INFO Injector:94   ==full==> ProviderInstanceBinding{key=Key[type=org.matsim.contribs.discrete_mode_choice.components.estimators.UniformTourEstimator, annotation=[none]], source=public org.matsim.contribs.discrete_mode_choice.components.estimators.UniformTourEstimator org.matsim.contribs.discrete_mode_choice.modules.EstimatorModule.proideNullTourEstimator(org.matsim.contribs.discrete_mode_choice.replanning.time_interpreter.TimeInterpreter$Factory), scope=Scopes.SINGLETON, provider=@Provides org.matsim.contribs.discrete_mode_choice.modules.EstimatorModule.proideNullTourEstimator(EstimatorModule.java:98)}
2024-03-18T16:46:43,706  INFO Injector:96 
2024-03-18T16:46:43,706  INFO Injector:85 org.matsim.contribs.discrete_mode_choice.components.utils.NullWaitingTimeEstimator 
2024-03-18T16:46:43,706  INFO Injector:86   --> provider: @Provides org.matsim.contribs.discrete_mode_choice.modules.EstimatorModule.provideNullWaitingTimeEstimator(EstimatorModule.java:104)[Scopes.SINGLETON]
2024-03-18T16:46:43,706  INFO Injector:87   --> source: public org.matsim.contribs.discrete_mode_choice.components.utils.NullWaitingTimeEstimator org.matsim.contribs.discrete_mode_choice.modules.EstimatorModule.provideNullWaitingTimeEstimator()
2024-03-18T16:46:43,706  INFO Injector:89   --> scope: Scopes.SINGLETON
2024-03-18T16:46:43,706  INFO Injector:94   ==full==> ProviderInstanceBinding{key=Key[type=org.matsim.contribs.discrete_mode_choice.components.utils.NullWaitingTimeEstimator, annotation=[none]], source=public org.matsim.contribs.discrete_mode_choice.components.utils.NullWaitingTimeEstimator org.matsim.contribs.discrete_mode_choice.modules.EstimatorModule.provideNullWaitingTimeEstimator(), scope=Scopes.SINGLETON, provider=@Provides org.matsim.contribs.discrete_mode_choice.modules.EstimatorModule.provideNullWaitingTimeEstimator(EstimatorModule.java:104)}
2024-03-18T16:46:43,707  INFO Injector:96 
2024-03-18T16:46:43,707  INFO Injector:85 org.matsim.contribs.discrete_mode_choice.components.estimators.MATSimTripScoringEstimator 
2024-03-18T16:46:43,707  INFO Injector:86   --> provider: @Provides org.matsim.contribs.discrete_mode_choice.modules.EstimatorModule.provideMATSimTripScoringEstimator(EstimatorModule.java:112)
2024-03-18T16:46:43,707  INFO Injector:87   --> source: public org.matsim.contribs.discrete_mode_choice.components.estimators.MATSimTripScoringEstimator org.matsim.contribs.discrete_mode_choice.modules.EstimatorModule.provideMATSimTripScoringEstimator(org.matsim.facilities.ActivityFacilities,org.matsim.core.router.TripRouter,org.matsim.contribs.discrete_mode_choice.components.utils.PTWaitingTimeEstimator,org.matsim.core.scoring.functions.ScoringParametersForPerson,org.matsim.contribs.discrete_mode_choice.modules.config.DiscreteModeChoiceConfigGroup,org.matsim.contribs.discrete_mode_choice.replanning.time_interpreter.TimeInterpreter$Factory)
2024-03-18T16:46:43,707  INFO Injector:89   --> scope: Scopes.NO_SCOPE
2024-03-18T16:46:43,707  INFO Injector:94   ==full==> ProviderInstanceBinding{key=Key[type=org.matsim.contribs.discrete_mode_choice.components.estimators.MATSimTripScoringEstimator, annotation=[none]], source=public org.matsim.contribs.discrete_mode_choice.components.estimators.MATSimTripScoringEstimator org.matsim.contribs.discrete_mode_choice.modules.EstimatorModule.provideMATSimTripScoringEstimator(org.matsim.facilities.ActivityFacilities,org.matsim.core.router.TripRouter,org.matsim.contribs.discrete_mode_choice.components.utils.PTWaitingTimeEstimator,org.matsim.core.scoring.functions.ScoringParametersForPerson,org.matsim.contribs.discrete_mode_choice.modules.config.DiscreteModeChoiceConfigGroup,org.matsim.contribs.discrete_mode_choice.replanning.time_interpreter.TimeInterpreter$Factory), scope=Scopes.NO_SCOPE, provider=@Provides org.matsim.contribs.discrete_mode_choice.modules.EstimatorModule.provideMATSimTripScoringEstimator(EstimatorModule.java:112)}
2024-03-18T16:46:43,707  INFO Injector:96 
2024-03-18T16:46:43,707  INFO Injector:85 org.matsim.contribs.discrete_mode_choice.components.estimators.MATSimDayScoringEstimator 
2024-03-18T16:46:43,707  INFO Injector:86   --> provider: @Provides org.matsim.contribs.discrete_mode_choice.modules.EstimatorModule.provideMATSimDayScoringEstimator(EstimatorModule.java:121)
2024-03-18T16:46:43,707  INFO Injector:87   --> source: public org.matsim.contribs.discrete_mode_choice.components.estimators.MATSimDayScoringEstimator org.matsim.contribs.discrete_mode_choice.modules.EstimatorModule.provideMATSimDayScoringEstimator(org.matsim.contribs.discrete_mode_choice.components.estimators.MATSimTripScoringEstimator,org.matsim.core.scoring.functions.ScoringParametersForPerson,org.matsim.contribs.discrete_mode_choice.modules.config.DiscreteModeChoiceConfigGroup,org.matsim.contribs.discrete_mode_choice.replanning.time_interpreter.TimeInterpreter$Factory)
2024-03-18T16:46:43,707  INFO Injector:89   --> scope: Scopes.NO_SCOPE
2024-03-18T16:46:43,707  INFO Injector:94   ==full==> ProviderInstanceBinding{key=Key[type=org.matsim.contribs.discrete_mode_choice.components.estimators.MATSimDayScoringEstimator, annotation=[none]], source=public org.matsim.contribs.discrete_mode_choice.components.estimators.MATSimDayScoringEstimator org.matsim.contribs.discrete_mode_choice.modules.EstimatorModule.provideMATSimDayScoringEstimator(org.matsim.contribs.discrete_mode_choice.components.estimators.MATSimTripScoringEstimator,org.matsim.core.scoring.functions.ScoringParametersForPerson,org.matsim.contribs.discrete_mode_choice.modules.config.DiscreteModeChoiceConfigGroup,org.matsim.contribs.discrete_mode_choice.replanning.time_interpreter.TimeInterpreter$Factory), scope=Scopes.NO_SCOPE, provider=@Provides org.matsim.contribs.discrete_mode_choice.modules.EstimatorModule.provideMATSimDayScoringEstimator(EstimatorModule.java:121)}
2024-03-18T16:46:43,707  INFO Injector:96 
2024-03-18T16:46:43,707  INFO Injector:85 org.matsim.contribs.discrete_mode_choice.components.estimators.CumulativeTourEstimator 
2024-03-18T16:46:43,708  INFO Injector:86   --> provider: @Provides org.matsim.contribs.discrete_mode_choice.modules.EstimatorModule.provideCumulativeTourEstimator(EstimatorModule.java:128)
2024-03-18T16:46:43,708  INFO Injector:87   --> source: public org.matsim.contribs.discrete_mode_choice.components.estimators.CumulativeTourEstimator org.matsim.contribs.discrete_mode_choice.modules.EstimatorModule.provideCumulativeTourEstimator(org.matsim.contribs.discrete_mode_choice.model.trip_based.TripEstimator,org.matsim.contribs.discrete_mode_choice.replanning.time_interpreter.TimeInterpreter$Factory)
2024-03-18T16:46:43,708  INFO Injector:89   --> scope: Scopes.NO_SCOPE
2024-03-18T16:46:43,708  INFO Injector:94   ==full==> ProviderInstanceBinding{key=Key[type=org.matsim.contribs.discrete_mode_choice.components.estimators.CumulativeTourEstimator, annotation=[none]], source=public org.matsim.contribs.discrete_mode_choice.components.estimators.CumulativeTourEstimator org.matsim.contribs.discrete_mode_choice.modules.EstimatorModule.provideCumulativeTourEstimator(org.matsim.contribs.discrete_mode_choice.model.trip_based.TripEstimator,org.matsim.contribs.discrete_mode_choice.replanning.time_interpreter.TimeInterpreter$Factory), scope=Scopes.NO_SCOPE, provider=@Provides org.matsim.contribs.discrete_mode_choice.modules.EstimatorModule.provideCumulativeTourEstimator(EstimatorModule.java:128)}
2024-03-18T16:46:43,708  INFO Injector:96 
2024-03-18T16:46:43,708  INFO Injector:85 org.matsim.contribs.discrete_mode_choice.model.trip_based.TripEstimator 
2024-03-18T16:46:43,708  INFO Injector:86   --> provider: @Provides org.matsim.contribs.discrete_mode_choice.modules.EstimatorModule.provideTripEstimator(EstimatorModule.java:79)
2024-03-18T16:46:43,708  INFO Injector:87   --> source: public org.matsim.contribs.discrete_mode_choice.model.trip_based.TripEstimator org.matsim.contribs.discrete_mode_choice.modules.EstimatorModule.provideTripEstimator(org.matsim.contribs.discrete_mode_choice.modules.config.DiscreteModeChoiceConfigGroup,java.util.Map)
2024-03-18T16:46:43,708  INFO Injector:89   --> scope: Scopes.NO_SCOPE
2024-03-18T16:46:43,708  INFO Injector:94   ==full==> ProviderInstanceBinding{key=Key[type=org.matsim.contribs.discrete_mode_choice.model.trip_based.TripEstimator, annotation=[none]], source=public org.matsim.contribs.discrete_mode_choice.model.trip_based.TripEstimator org.matsim.contribs.discrete_mode_choice.modules.EstimatorModule.provideTripEstimator(org.matsim.contribs.discrete_mode_choice.modules.config.DiscreteModeChoiceConfigGroup,java.util.Map), scope=Scopes.NO_SCOPE, provider=@Provides org.matsim.contribs.discrete_mode_choice.modules.EstimatorModule.provideTripEstimator(EstimatorModule.java:79)}
2024-03-18T16:46:43,708  INFO Injector:96 
2024-03-18T16:46:43,708  INFO Injector:85 org.matsim.contribs.discrete_mode_choice.components.estimators.UniformTripEstimator 
2024-03-18T16:46:43,709  INFO Injector:86   --> provider: @Provides org.matsim.contribs.discrete_mode_choice.modules.EstimatorModule.provideNullTripEstimator(EstimatorModule.java:92)[Scopes.SINGLETON]
2024-03-18T16:46:43,709  INFO Injector:87   --> source: public org.matsim.contribs.discrete_mode_choice.components.estimators.UniformTripEstimator org.matsim.contribs.discrete_mode_choice.modules.EstimatorModule.provideNullTripEstimator(org.matsim.contribs.discrete_mode_choice.replanning.time_interpreter.TimeInterpreter$Factory)
2024-03-18T16:46:43,709  INFO Injector:89   --> scope: Scopes.SINGLETON
2024-03-18T16:46:43,709  INFO Injector:94   ==full==> ProviderInstanceBinding{key=Key[type=org.matsim.contribs.discrete_mode_choice.components.estimators.UniformTripEstimator, annotation=[none]], source=public org.matsim.contribs.discrete_mode_choice.components.estimators.UniformTripEstimator org.matsim.contribs.discrete_mode_choice.modules.EstimatorModule.provideNullTripEstimator(org.matsim.contribs.discrete_mode_choice.replanning.time_interpreter.TimeInterpreter$Factory), scope=Scopes.SINGLETON, provider=@Provides org.matsim.contribs.discrete_mode_choice.modules.EstimatorModule.provideNullTripEstimator(EstimatorModule.java:92)}
2024-03-18T16:46:43,709  INFO Injector:96 
2024-03-18T16:46:43,709  INFO Injector:85 org.matsim.contribs.discrete_mode_choice.model.tour_based.TourEstimator 
2024-03-18T16:46:43,709  INFO Injector:86   --> provider: @Provides org.matsim.contribs.discrete_mode_choice.modules.EstimatorModule.provideTourEstimator(EstimatorModule.java:66)
2024-03-18T16:46:43,709  INFO Injector:87   --> source: public org.matsim.contribs.discrete_mode_choice.model.tour_based.TourEstimator org.matsim.contribs.discrete_mode_choice.modules.EstimatorModule.provideTourEstimator(org.matsim.contribs.discrete_mode_choice.modules.config.DiscreteModeChoiceConfigGroup,java.util.Map)
2024-03-18T16:46:43,709  INFO Injector:89   --> scope: Scopes.NO_SCOPE
2024-03-18T16:46:43,709  INFO Injector:94   ==full==> ProviderInstanceBinding{key=Key[type=org.matsim.contribs.discrete_mode_choice.model.tour_based.TourEstimator, annotation=[none]], source=public org.matsim.contribs.discrete_mode_choice.model.tour_based.TourEstimator org.matsim.contribs.discrete_mode_choice.modules.EstimatorModule.provideTourEstimator(org.matsim.contribs.discrete_mode_choice.modules.config.DiscreteModeChoiceConfigGroup,java.util.Map), scope=Scopes.NO_SCOPE, provider=@Provides org.matsim.contribs.discrete_mode_choice.modules.EstimatorModule.provideTourEstimator(EstimatorModule.java:66)}
2024-03-18T16:46:43,709  INFO Injector:96 
2024-03-18T16:46:43,709  INFO Injector:85 org.matsim.contribs.discrete_mode_choice.components.tour_finder.TourFinder @com.google.inject.internal.Element(setName=,uniqueId=158, type=MAPBINDER, keyType=java.lang.String)
2024-03-18T16:46:43,710  INFO Injector:86   --> provider: FactoryProxy{key=Key[type=org.matsim.contribs.discrete_mode_choice.components.tour_finder.TourFinder, annotation=@com.google.inject.internal.Element(setName=,uniqueId=158, type=MAPBINDER, keyType=java.lang.String)], provider=@Provides org.matsim.contribs.discrete_mode_choice.modules.TourFinderModule.providePlanTourFinder(TourFinderModule.java:42)[Scopes.SINGLETON]}
2024-03-18T16:46:43,710  INFO Injector:87   --> source: org.matsim.contribs.discrete_mode_choice.modules.AbstractDiscreteModeChoiceExtension.bindTourFinder(AbstractDiscreteModeChoiceExtension.java:94)
2024-03-18T16:46:43,710  INFO Injector:89   --> scope: Scopes.NO_SCOPE
2024-03-18T16:46:43,710  INFO Injector:92   --> target: Key[type=org.matsim.contribs.discrete_mode_choice.components.tour_finder.PlanTourFinder, annotation=[none]]
2024-03-18T16:46:43,710  INFO Injector:94   ==full==> LinkedKeyBinding{key=Key[type=org.matsim.contribs.discrete_mode_choice.components.tour_finder.TourFinder, annotation=@com.google.inject.internal.Element(setName=,uniqueId=158, type=MAPBINDER, keyType=java.lang.String)], source=org.matsim.contribs.discrete_mode_choice.modules.AbstractDiscreteModeChoiceExtension.bindTourFinder(AbstractDiscreteModeChoiceExtension.java:94), scope=Scopes.NO_SCOPE, target=Key[type=org.matsim.contribs.discrete_mode_choice.components.tour_finder.PlanTourFinder, annotation=[none]]}
2024-03-18T16:46:43,710  INFO Injector:96 
2024-03-18T16:46:43,710  INFO Injector:85 org.matsim.contribs.discrete_mode_choice.components.tour_finder.TourFinder @com.google.inject.internal.Element(setName=,uniqueId=160, type=MAPBINDER, keyType=java.lang.String)
2024-03-18T16:46:43,710  INFO Injector:86   --> provider: FactoryProxy{key=Key[type=org.matsim.contribs.discrete_mode_choice.components.tour_finder.TourFinder, annotation=@com.google.inject.internal.Element(setName=,uniqueId=160, type=MAPBINDER, keyType=java.lang.String)], provider=@Provides org.matsim.contribs.discrete_mode_choice.modules.TourFinderModule.provideActivityBasedTourFinder(TourFinderModule.java:48)[Scopes.SINGLETON]}
2024-03-18T16:46:43,710  INFO Injector:87   --> source: org.matsim.contribs.discrete_mode_choice.modules.AbstractDiscreteModeChoiceExtension.bindTourFinder(AbstractDiscreteModeChoiceExtension.java:94)
2024-03-18T16:46:43,710  INFO Injector:89   --> scope: Scopes.NO_SCOPE
2024-03-18T16:46:43,711  INFO Injector:92   --> target: Key[type=org.matsim.contribs.discrete_mode_choice.components.tour_finder.ActivityTourFinder, annotation=[none]]
2024-03-18T16:46:43,711  INFO Injector:94   ==full==> LinkedKeyBinding{key=Key[type=org.matsim.contribs.discrete_mode_choice.components.tour_finder.TourFinder, annotation=@com.google.inject.internal.Element(setName=,uniqueId=160, type=MAPBINDER, keyType=java.lang.String)], source=org.matsim.contribs.discrete_mode_choice.modules.AbstractDiscreteModeChoiceExtension.bindTourFinder(AbstractDiscreteModeChoiceExtension.java:94), scope=Scopes.NO_SCOPE, target=Key[type=org.matsim.contribs.discrete_mode_choice.components.tour_finder.ActivityTourFinder, annotation=[none]]}
2024-03-18T16:46:43,711  INFO Injector:96 
2024-03-18T16:46:43,711  INFO Injector:85 org.matsim.contribs.discrete_mode_choice.components.tour_finder.TourFinder @com.google.inject.internal.Element(setName=,uniqueId=162, type=MAPBINDER, keyType=java.lang.String)
2024-03-18T16:46:43,711  INFO Injector:86   --> provider: FactoryProxy{key=Key[type=org.matsim.contribs.discrete_mode_choice.components.tour_finder.TourFinder, annotation=@com.google.inject.internal.Element(setName=,uniqueId=162, type=MAPBINDER, keyType=java.lang.String)], provider=@Provides org.matsim.contribs.discrete_mode_choice.modules.TourFinderModule.provideHomeTourFinder(TourFinderModule.java:55)[Scopes.SINGLETON]}
2024-03-18T16:46:43,711  INFO Injector:87   --> source: org.matsim.contribs.discrete_mode_choice.modules.AbstractDiscreteModeChoiceExtension.bindTourFinder(AbstractDiscreteModeChoiceExtension.java:94)
2024-03-18T16:46:43,711  INFO Injector:89   --> scope: Scopes.NO_SCOPE
2024-03-18T16:46:43,711  INFO Injector:92   --> target: Key[type=org.matsim.contribs.discrete_mode_choice.components.tour_finder.HomeTourFinder, annotation=[none]]
2024-03-18T16:46:43,711  INFO Injector:94   ==full==> LinkedKeyBinding{key=Key[type=org.matsim.contribs.discrete_mode_choice.components.tour_finder.TourFinder, annotation=@com.google.inject.internal.Element(setName=,uniqueId=162, type=MAPBINDER, keyType=java.lang.String)], source=org.matsim.contribs.discrete_mode_choice.modules.AbstractDiscreteModeChoiceExtension.bindTourFinder(AbstractDiscreteModeChoiceExtension.java:94), scope=Scopes.NO_SCOPE, target=Key[type=org.matsim.contribs.discrete_mode_choice.components.tour_finder.HomeTourFinder, annotation=[none]]}
2024-03-18T16:46:43,711  INFO Injector:96 
2024-03-18T16:46:43,711  INFO Injector:85 org.matsim.contribs.discrete_mode_choice.components.tour_finder.HomeTourFinder 
2024-03-18T16:46:43,711  INFO Injector:86   --> provider: @Provides org.matsim.contribs.discrete_mode_choice.modules.TourFinderModule.provideHomeTourFinder(TourFinderModule.java:55)[Scopes.SINGLETON]
2024-03-18T16:46:43,711  INFO Injector:87   --> source: public org.matsim.contribs.discrete_mode_choice.components.tour_finder.HomeTourFinder org.matsim.contribs.discrete_mode_choice.modules.TourFinderModule.provideHomeTourFinder(org.matsim.contribs.discrete_mode_choice.components.utils.home_finder.HomeFinder)
2024-03-18T16:46:43,711  INFO Injector:89   --> scope: Scopes.SINGLETON
2024-03-18T16:46:43,711  INFO Injector:94   ==full==> ProviderInstanceBinding{key=Key[type=org.matsim.contribs.discrete_mode_choice.components.tour_finder.HomeTourFinder, annotation=[none]], source=public org.matsim.contribs.discrete_mode_choice.components.tour_finder.HomeTourFinder org.matsim.contribs.discrete_mode_choice.modules.TourFinderModule.provideHomeTourFinder(org.matsim.contribs.discrete_mode_choice.components.utils.home_finder.HomeFinder), scope=Scopes.SINGLETON, provider=@Provides org.matsim.contribs.discrete_mode_choice.modules.TourFinderModule.provideHomeTourFinder(TourFinderModule.java:55)}
2024-03-18T16:46:43,712  INFO Injector:96 
2024-03-18T16:46:43,712  INFO Injector:85 org.matsim.contribs.discrete_mode_choice.components.tour_finder.TourFinder 
2024-03-18T16:46:43,712  INFO Injector:86   --> provider: @Provides org.matsim.contribs.discrete_mode_choice.modules.TourFinderModule.provideTourFinder(TourFinderModule.java:62)[Scopes.SINGLETON]
2024-03-18T16:46:43,712  INFO Injector:87   --> source: public org.matsim.contribs.discrete_mode_choice.components.tour_finder.TourFinder org.matsim.contribs.discrete_mode_choice.modules.TourFinderModule.provideTourFinder(org.matsim.contribs.discrete_mode_choice.modules.config.DiscreteModeChoiceConfigGroup,java.util.Map)
2024-03-18T16:46:43,712  INFO Injector:89   --> scope: Scopes.SINGLETON
2024-03-18T16:46:43,712  INFO Injector:94   ==full==> ProviderInstanceBinding{key=Key[type=org.matsim.contribs.discrete_mode_choice.components.tour_finder.TourFinder, annotation=[none]], source=public org.matsim.contribs.discrete_mode_choice.components.tour_finder.TourFinder org.matsim.contribs.discrete_mode_choice.modules.TourFinderModule.provideTourFinder(org.matsim.contribs.discrete_mode_choice.modules.config.DiscreteModeChoiceConfigGroup,java.util.Map), scope=Scopes.SINGLETON, provider=@Provides org.matsim.contribs.discrete_mode_choice.modules.TourFinderModule.provideTourFinder(TourFinderModule.java:62)}
2024-03-18T16:46:43,712  INFO Injector:96 
2024-03-18T16:46:43,712  INFO Injector:85 org.matsim.contribs.discrete_mode_choice.components.tour_finder.PlanTourFinder 
2024-03-18T16:46:43,712  INFO Injector:86   --> provider: @Provides org.matsim.contribs.discrete_mode_choice.modules.TourFinderModule.providePlanTourFinder(TourFinderModule.java:42)[Scopes.SINGLETON]
2024-03-18T16:46:43,712  INFO Injector:87   --> source: public org.matsim.contribs.discrete_mode_choice.components.tour_finder.PlanTourFinder org.matsim.contribs.discrete_mode_choice.modules.TourFinderModule.providePlanTourFinder()
2024-03-18T16:46:43,712  INFO Injector:89   --> scope: Scopes.SINGLETON
2024-03-18T16:46:43,712  INFO Injector:94   ==full==> ProviderInstanceBinding{key=Key[type=org.matsim.contribs.discrete_mode_choice.components.tour_finder.PlanTourFinder, annotation=[none]], source=public org.matsim.contribs.discrete_mode_choice.components.tour_finder.PlanTourFinder org.matsim.contribs.discrete_mode_choice.modules.TourFinderModule.providePlanTourFinder(), scope=Scopes.SINGLETON, provider=@Provides org.matsim.contribs.discrete_mode_choice.modules.TourFinderModule.providePlanTourFinder(TourFinderModule.java:42)}
2024-03-18T16:46:43,712  INFO Injector:96 
2024-03-18T16:46:43,712  INFO Injector:85 org.matsim.contribs.discrete_mode_choice.components.tour_finder.ActivityTourFinder 
2024-03-18T16:46:43,713  INFO Injector:86   --> provider: @Provides org.matsim.contribs.discrete_mode_choice.modules.TourFinderModule.provideActivityBasedTourFinder(TourFinderModule.java:48)[Scopes.SINGLETON]
2024-03-18T16:46:43,713  INFO Injector:87   --> source: public org.matsim.contribs.discrete_mode_choice.components.tour_finder.ActivityTourFinder org.matsim.contribs.discrete_mode_choice.modules.TourFinderModule.provideActivityBasedTourFinder(org.matsim.contribs.discrete_mode_choice.modules.config.DiscreteModeChoiceConfigGroup)
2024-03-18T16:46:43,713  INFO Injector:89   --> scope: Scopes.SINGLETON
2024-03-18T16:46:43,713  INFO Injector:94   ==full==> ProviderInstanceBinding{key=Key[type=org.matsim.contribs.discrete_mode_choice.components.tour_finder.ActivityTourFinder, annotation=[none]], source=public org.matsim.contribs.discrete_mode_choice.components.tour_finder.ActivityTourFinder org.matsim.contribs.discrete_mode_choice.modules.TourFinderModule.provideActivityBasedTourFinder(org.matsim.contribs.discrete_mode_choice.modules.config.DiscreteModeChoiceConfigGroup), scope=Scopes.SINGLETON, provider=@Provides org.matsim.contribs.discrete_mode_choice.modules.TourFinderModule.provideActivityBasedTourFinder(TourFinderModule.java:48)}
2024-03-18T16:46:43,713  INFO Injector:96 
2024-03-18T16:46:43,713  INFO Injector:85 org.matsim.contribs.discrete_mode_choice.model.utilities.UtilitySelectorFactory @com.google.inject.internal.Element(setName=,uniqueId=164, type=MAPBINDER, keyType=java.lang.String)
2024-03-18T16:46:43,713  INFO Injector:86   --> provider: FactoryProxy{key=Key[type=org.matsim.contribs.discrete_mode_choice.model.utilities.UtilitySelectorFactory, annotation=@com.google.inject.internal.Element(setName=,uniqueId=164, type=MAPBINDER, keyType=java.lang.String)], provider=@Provides org.matsim.contribs.discrete_mode_choice.modules.SelectorModule.provideMaximumTripSelector(SelectorModule.java:54)[Scopes.SINGLETON]}
2024-03-18T16:46:43,713  INFO Injector:87   --> source: org.matsim.contribs.discrete_mode_choice.modules.AbstractDiscreteModeChoiceExtension.bindSelectorFactory(AbstractDiscreteModeChoiceExtension.java:86)
2024-03-18T16:46:43,714  INFO Injector:89   --> scope: Scopes.NO_SCOPE
2024-03-18T16:46:43,714  INFO Injector:92   --> target: Key[type=org.matsim.contribs.discrete_mode_choice.model.utilities.MaximumSelector$Factory, annotation=[none]]
2024-03-18T16:46:43,714  INFO Injector:94   ==full==> LinkedKeyBinding{key=Key[type=org.matsim.contribs.discrete_mode_choice.model.utilities.UtilitySelectorFactory, annotation=@com.google.inject.internal.Element(setName=,uniqueId=164, type=MAPBINDER, keyType=java.lang.String)], source=org.matsim.contribs.discrete_mode_choice.modules.AbstractDiscreteModeChoiceExtension.bindSelectorFactory(AbstractDiscreteModeChoiceExtension.java:86), scope=Scopes.NO_SCOPE, target=Key[type=org.matsim.contribs.discrete_mode_choice.model.utilities.MaximumSelector$Factory, annotation=[none]]}
2024-03-18T16:46:43,714  INFO Injector:96 
2024-03-18T16:46:43,714  INFO Injector:85 org.matsim.contribs.discrete_mode_choice.model.utilities.UtilitySelectorFactory @com.google.inject.internal.Element(setName=,uniqueId=166, type=MAPBINDER, keyType=java.lang.String)
2024-03-18T16:46:43,714  INFO Injector:86   --> provider: FactoryProxy{key=Key[type=org.matsim.contribs.discrete_mode_choice.model.utilities.UtilitySelectorFactory, annotation=@com.google.inject.internal.Element(setName=,uniqueId=166, type=MAPBINDER, keyType=java.lang.String)], provider=@Provides org.matsim.contribs.discrete_mode_choice.modules.SelectorModule.provideMultinomialLogitTripSelector(SelectorModule.java:61)[Scopes.SINGLETON]}
2024-03-18T16:46:43,714  INFO Injector:87   --> source: org.matsim.contribs.discrete_mode_choice.modules.AbstractDiscreteModeChoiceExtension.bindSelectorFactory(AbstractDiscreteModeChoiceExtension.java:86)
2024-03-18T16:46:43,714  INFO Injector:89   --> scope: Scopes.NO_SCOPE
2024-03-18T16:46:43,714  INFO Injector:92   --> target: Key[type=org.matsim.contribs.discrete_mode_choice.model.utilities.MultinomialLogitSelector$Factory, annotation=[none]]
2024-03-18T16:46:43,714  INFO Injector:94   ==full==> LinkedKeyBinding{key=Key[type=org.matsim.contribs.discrete_mode_choice.model.utilities.UtilitySelectorFactory, annotation=@com.google.inject.internal.Element(setName=,uniqueId=166, type=MAPBINDER, keyType=java.lang.String)], source=org.matsim.contribs.discrete_mode_choice.modules.AbstractDiscreteModeChoiceExtension.bindSelectorFactory(AbstractDiscreteModeChoiceExtension.java:86), scope=Scopes.NO_SCOPE, target=Key[type=org.matsim.contribs.discrete_mode_choice.model.utilities.MultinomialLogitSelector$Factory, annotation=[none]]}
2024-03-18T16:46:43,714  INFO Injector:96 
2024-03-18T16:46:43,714  INFO Injector:85 org.matsim.contribs.discrete_mode_choice.model.utilities.UtilitySelectorFactory @com.google.inject.internal.Element(setName=,uniqueId=168, type=MAPBINDER, keyType=java.lang.String)
2024-03-18T16:46:43,714  INFO Injector:86   --> provider: FactoryProxy{key=Key[type=org.matsim.contribs.discrete_mode_choice.model.utilities.UtilitySelectorFactory, annotation=@com.google.inject.internal.Element(setName=,uniqueId=168, type=MAPBINDER, keyType=java.lang.String)], provider=@Provides org.matsim.contribs.discrete_mode_choice.modules.SelectorModule.provideRandomTripSelector(SelectorModule.java:69)[Scopes.SINGLETON]}
2024-03-18T16:46:43,715  INFO Injector:87   --> source: org.matsim.contribs.discrete_mode_choice.modules.AbstractDiscreteModeChoiceExtension.bindSelectorFactory(AbstractDiscreteModeChoiceExtension.java:86)
2024-03-18T16:46:43,715  INFO Injector:89   --> scope: Scopes.NO_SCOPE
2024-03-18T16:46:43,715  INFO Injector:92   --> target: Key[type=org.matsim.contribs.discrete_mode_choice.model.utilities.RandomSelector$Factory, annotation=[none]]
2024-03-18T16:46:43,715  INFO Injector:94   ==full==> LinkedKeyBinding{key=Key[type=org.matsim.contribs.discrete_mode_choice.model.utilities.UtilitySelectorFactory, annotation=@com.google.inject.internal.Element(setName=,uniqueId=168, type=MAPBINDER, keyType=java.lang.String)], source=org.matsim.contribs.discrete_mode_choice.modules.AbstractDiscreteModeChoiceExtension.bindSelectorFactory(AbstractDiscreteModeChoiceExtension.java:86), scope=Scopes.NO_SCOPE, target=Key[type=org.matsim.contribs.discrete_mode_choice.model.utilities.RandomSelector$Factory, annotation=[none]]}
2024-03-18T16:46:43,715  INFO Injector:96 
2024-03-18T16:46:43,715  INFO Injector:85 org.matsim.contribs.discrete_mode_choice.model.utilities.RandomSelector$Factory 
2024-03-18T16:46:43,715  INFO Injector:86   --> provider: @Provides org.matsim.contribs.discrete_mode_choice.modules.SelectorModule.provideRandomTripSelector(SelectorModule.java:69)[Scopes.SINGLETON]
2024-03-18T16:46:43,715  INFO Injector:87   --> source: public org.matsim.contribs.discrete_mode_choice.model.utilities.RandomSelector$Factory org.matsim.contribs.discrete_mode_choice.modules.SelectorModule.provideRandomTripSelector()
2024-03-18T16:46:43,715  INFO Injector:89   --> scope: Scopes.SINGLETON
2024-03-18T16:46:43,715  INFO Injector:94   ==full==> ProviderInstanceBinding{key=Key[type=org.matsim.contribs.discrete_mode_choice.model.utilities.RandomSelector$Factory, annotation=[none]], source=public org.matsim.contribs.discrete_mode_choice.model.utilities.RandomSelector$Factory org.matsim.contribs.discrete_mode_choice.modules.SelectorModule.provideRandomTripSelector(), scope=Scopes.SINGLETON, provider=@Provides org.matsim.contribs.discrete_mode_choice.modules.SelectorModule.provideRandomTripSelector(SelectorModule.java:69)}
2024-03-18T16:46:43,715  INFO Injector:96 
2024-03-18T16:46:43,715  INFO Injector:85 org.matsim.contribs.discrete_mode_choice.model.utilities.MultinomialLogitSelector$Factory 
2024-03-18T16:46:43,715  INFO Injector:86   --> provider: @Provides org.matsim.contribs.discrete_mode_choice.modules.SelectorModule.provideMultinomialLogitTripSelector(SelectorModule.java:61)[Scopes.SINGLETON]
2024-03-18T16:46:43,715  INFO Injector:87   --> source: public org.matsim.contribs.discrete_mode_choice.model.utilities.MultinomialLogitSelector$Factory org.matsim.contribs.discrete_mode_choice.modules.SelectorModule.provideMultinomialLogitTripSelector(org.matsim.contribs.discrete_mode_choice.modules.config.DiscreteModeChoiceConfigGroup)
2024-03-18T16:46:43,715  INFO Injector:89   --> scope: Scopes.SINGLETON
2024-03-18T16:46:43,715  INFO Injector:94   ==full==> ProviderInstanceBinding{key=Key[type=org.matsim.contribs.discrete_mode_choice.model.utilities.MultinomialLogitSelector$Factory, annotation=[none]], source=public org.matsim.contribs.discrete_mode_choice.model.utilities.MultinomialLogitSelector$Factory org.matsim.contribs.discrete_mode_choice.modules.SelectorModule.provideMultinomialLogitTripSelector(org.matsim.contribs.discrete_mode_choice.modules.config.DiscreteModeChoiceConfigGroup), scope=Scopes.SINGLETON, provider=@Provides org.matsim.contribs.discrete_mode_choice.modules.SelectorModule.provideMultinomialLogitTripSelector(SelectorModule.java:61)}
2024-03-18T16:46:43,716  INFO Injector:96 
2024-03-18T16:46:43,716  INFO Injector:85 org.matsim.contribs.discrete_mode_choice.model.utilities.MaximumSelector$Factory 
2024-03-18T16:46:43,716  INFO Injector:86   --> provider: @Provides org.matsim.contribs.discrete_mode_choice.modules.SelectorModule.provideMaximumTripSelector(SelectorModule.java:54)[Scopes.SINGLETON]
[...]
2024-03-18T17:09:57,329  INFO ParallelProgress:26 Imputing headway ... 191200/398245 (48.01%)
2024-03-18T17:09:58,330  INFO ParallelProgress:26 Imputing headway ... 191400/398245 (48.06%)
2024-03-18T17:10:00,330  INFO ParallelProgress:26 Imputing headway ... 191500/398245 (48.09%)
2024-03-18T17:10:03,331  INFO ParallelProgress:26 Imputing headway ... 191600/398245 (48.11%)
2024-03-18T17:10:04,331  INFO ParallelProgress:26 Imputing headway ... 191700/398245 (48.14%)
2024-03-18T17:10:06,331  INFO ParallelProgress:26 Imputing headway ... 191900/398245 (48.19%)
2024-03-18T17:10:09,332  INFO ParallelProgress:26 Imputing headway ... 192100/398245 (48.24%)
2024-03-18T17:10:10,332  INFO ParallelProgress:26 Imputing headway ... 192200/398245 (48.26%)
2024-03-18T17:10:12,333  INFO ParallelProgress:26 Imputing headway ... 192400/398245 (48.31%)
2024-03-18T17:10:13,333  INFO ParallelProgress:26 Imputing headway ... 192500/398245 (48.34%)
2024-03-18T17:10:16,334  INFO ParallelProgress:26 Imputing headway ... 192800/398245 (48.41%)
2024-03-18T17:10:17,334  INFO ParallelProgress:26 Imputing headway ... 192900/398245 (48.44%)
2024-03-18T17:10:19,334  INFO ParallelProgress:26 Imputing headway ... 193000/398245 (48.46%)
2024-03-18T17:10:20,335  INFO ParallelProgress:26 Imputing headway ... 193200/398245 (48.51%)
2024-03-18T17:10:22,335  INFO ParallelProgress:26 Imputing headway ... 193300/398245 (48.54%)
2024-03-18T17:10:23,336  INFO ParallelProgress:26 Imputing headway ... 193400/398245 (48.56%)
2024-03-18T17:10:24,336  INFO ParallelProgress:26 Imputing headway ... 193500/398245 (48.59%)
2024-03-18T17:10:26,336  INFO ParallelProgress:26 Imputing headway ... 193700/398245 (48.64%)
2024-03-18T17:10:27,337  INFO ParallelProgress:26 Imputing headway ... 193900/398245 (48.69%)
2024-03-18T17:10:29,337  INFO ParallelProgress:26 Imputing headway ... 194100/398245 (48.74%)
2024-03-18T17:10:30,337  INFO ParallelProgress:26 Imputing headway ... 194200/398245 (48.76%)
2024-03-18T17:10:31,338  INFO ParallelProgress:26 Imputing headway ... 194300/398245 (48.79%)
2024-03-18T17:10:32,338  INFO ParallelProgress:26 Imputing headway ... 194400/398245 (48.81%)
2024-03-18T17:10:34,339  INFO ParallelProgress:26 Imputing headway ... 194700/398245 (48.89%)
2024-03-18T17:10:36,339  INFO ParallelProgress:26 Imputing headway ... 194900/398245 (48.94%)
2024-03-18T17:10:37,339  INFO ParallelProgress:26 Imputing headway ... 195400/398245 (49.07%)
2024-03-18T17:10:39,340  INFO ParallelProgress:26 Imputing headway ... 195700/398245 (49.14%)
2024-03-18T17:10:46,341  INFO ParallelProgress:26 Imputing headway ... 195900/398245 (49.19%)
2024-03-18T17:10:47,341  INFO ParallelProgress:26 Imputing headway ... 196200/398245 (49.27%)
2024-03-18T17:10:49,341  INFO ParallelProgress:26 Imputing headway ... 196300/398245 (49.29%)
2024-03-18T17:10:51,342  INFO ParallelProgress:26 Imputing headway ... 196700/398245 (49.39%)
2024-03-18T17:10:52,342  INFO ParallelProgress:26 Imputing headway ... 196800/398245 (49.42%)
2024-03-18T17:10:53,343  INFO ParallelProgress:26 Imputing headway ... 196900/398245 (49.44%)
2024-03-18T17:10:56,343  INFO ParallelProgress:26 Imputing headway ... 197000/398245 (49.47%)
2024-03-18T17:10:59,344  INFO ParallelProgress:26 Imputing headway ... 197200/398245 (49.52%)
2024-03-18T17:11:00,344  INFO ParallelProgress:26 Imputing headway ... 197300/398245 (49.54%)
2024-03-18T17:11:03,347  INFO ParallelProgress:26 Imputing headway ... 197700/398245 (49.64%)
2024-03-18T17:11:04,351  INFO ParallelProgress:26 Imputing headway ... 198000/398245 (49.72%)
2024-03-18T17:11:05,352  INFO ParallelProgress:26 Imputing headway ... 198100/398245 (49.74%)
2024-03-18T17:11:09,352  INFO ParallelProgress:26 Imputing headway ... 198200/398245 (49.77%)
2024-03-18T17:11:12,353  INFO ParallelProgress:26 Imputing headway ... 198400/398245 (49.82%)
2024-03-18T17:11:13,353  INFO ParallelProgress:26 Imputing headway ... 198500/398245 (49.84%)
2024-03-18T17:11:14,354  INFO ParallelProgress:26 Imputing headway ... 198700/398245 (49.89%)
2024-03-18T17:11:15,354  INFO ParallelProgress:26 Imputing headway ... 198900/398245 (49.94%)
2024-03-18T17:11:16,354  INFO ParallelProgress:26 Imputing headway ... 199000/398245 (49.97%)
2024-03-18T17:11:17,355  INFO ParallelProgress:26 Imputing headway ... 199100/398245 (49.99%)
2024-03-18T17:11:19,355  INFO ParallelProgress:26 Imputing headway ... 199200/398245 (50.02%)
2024-03-18T17:11:20,355  INFO ParallelProgress:26 Imputing headway ... 199400/398245 (50.07%)
2024-03-18T17:11:24,356  INFO ParallelProgress:26 Imputing headway ... 199500/398245 (50.09%)
2024-03-18T17:11:25,356  INFO ParallelProgress:26 Imputing headway ... 199600/398245 (50.12%)
2024-03-18T17:11:27,357  INFO ParallelProgress:26 Imputing headway ... 200100/398245 (50.25%)
2024-03-18T17:11:28,357  INFO ParallelProgress:26 Imputing headway ... 200300/398245 (50.30%)
2024-03-18T17:11:29,358  INFO ParallelProgress:26 Imputing headway ... 200400/398245 (50.32%)
2024-03-18T17:11:30,358  INFO ParallelProgress:26 Imputing headway ... 200500/398245 (50.35%)
2024-03-18T17:11:31,358  INFO ParallelProgress:26 Imputing headway ... 200600/398245 (50.37%)
2024-03-18T17:11:32,359  INFO ParallelProgress:26 Imputing headway ... 200800/398245 (50.42%)
2024-03-18T17:11:33,359  INFO ParallelProgress:26 Imputing headway ... 200900/398245 (50.45%)
2024-03-18T17:11:34,359  INFO ParallelProgress:26 Imputing headway ... 201000/398245 (50.47%)
2024-03-18T17:11:35,360  INFO ParallelProgress:26 Imputing headway ... 201100/398245 (50.50%)
2024-03-18T17:11:37,360  INFO ParallelProgress:26 Imputing headway ... 201200/398245 (50.52%)
2024-03-18T17:11:41,360  INFO ParallelProgress:26 Imputing headway ... 201500/398245 (50.60%)
2024-03-18T17:11:43,361  INFO ParallelProgress:26 Imputing headway ... 201700/398245 (50.65%)
2024-03-18T17:11:44,361  INFO ParallelProgress:26 Imputing headway ... 201800/398245 (50.67%)
2024-03-18T17:11:45,362  INFO ParallelProgress:26 Imputing headway ... 201900/398245 (50.70%)
2024-03-18T17:11:46,362  INFO ParallelProgress:26 Imputing headway ... 202000/398245 (50.72%)
2024-03-18T17:11:47,362  INFO ParallelProgress:26 Imputing headway ... 202100/398245 (50.75%)
2024-03-18T17:11:49,363  INFO ParallelProgress:26 Imputing headway ... 202200/398245 (50.77%)
2024-03-18T17:11:52,363  INFO ParallelProgress:26 Imputing headway ... 202400/398245 (50.82%)
2024-03-18T17:11:54,364  INFO ParallelProgress:26 Imputing headway ... 202500/398245 (50.85%)
2024-03-18T17:11:55,364  INFO ParallelProgress:26 Imputing headway ... 202700/398245 (50.90%)
2024-03-18T17:11:59,365  INFO ParallelProgress:26 Imputing headway ... 202900/398245 (50.95%)
2024-03-18T17:12:02,365  INFO ParallelProgress:26 Imputing headway ... 203000/398245 (50.97%)
2024-03-18T17:12:03,365  INFO ParallelProgress:26 Imputing headway ... 203100/398245 (51.00%)
2024-03-18T17:12:05,366  INFO ParallelProgress:26 Imputing headway ... 203300/398245 (51.05%)
2024-03-18T17:12:06,366  INFO ParallelProgress:26 Imputing headway ... 203500/398245 (51.10%)
2024-03-18T17:12:09,367  INFO ParallelProgress:26 Imputing headway ... 203700/398245 (51.15%)
2024-03-18T17:12:10,367  INFO ParallelProgress:26 Imputing headway ... 203800/398245 (51.17%)
2024-03-18T17:12:12,367  INFO ParallelProgress:26 Imputing headway ... 203900/398245 (51.20%)
2024-03-18T17:12:15,368  INFO ParallelProgress:26 Imputing headway ... 204000/398245 (51.22%)
2024-03-18T17:12:16,368  INFO ParallelProgress:26 Imputing headway ... 204200/398245 (51.27%)
2024-03-18T17:12:17,369  INFO ParallelProgress:26 Imputing headway ... 204400/398245 (51.33%)
2024-03-18T17:12:20,369  INFO ParallelProgress:26 Imputing headway ... 204500/398245 (51.35%)
2024-03-18T17:12:21,369  INFO ParallelProgress:26 Imputing headway ... 204700/398245 (51.40%)
2024-03-18T17:12:22,370  INFO ParallelProgress:26 Imputing headway ... 204800/398245 (51.43%)
2024-03-18T17:12:23,370  INFO ParallelProgress:26 Imputing headway ... 205000/398245 (51.48%)
2024-03-18T17:12:24,371  INFO ParallelProgress:26 Imputing headway ... 205200/398245 (51.53%)
2024-03-18T17:12:25,371  INFO ParallelProgress:26 Imputing headway ... 205400/398245 (51.58%)
2024-03-18T17:12:26,371  INFO ParallelProgress:26 Imputing headway ... 205700/398245 (51.65%)
2024-03-18T17:12:27,372  INFO ParallelProgress:26 Imputing headway ... 205800/398245 (51.68%)
2024-03-18T17:12:28,372  INFO ParallelProgress:26 Imputing headway ... 205900/398245 (51.70%)
2024-03-18T17:12:29,373  INFO ParallelProgress:26 Imputing headway ... 206100/398245 (51.75%)
2024-03-18T17:12:30,373  INFO ParallelProgress:26 Imputing headway ... 206300/398245 (51.80%)
2024-03-18T17:12:31,374  INFO ParallelProgress:26 Imputing headway ... 206500/398245 (51.85%)
2024-03-18T17:12:32,374  INFO ParallelProgress:26 Imputing headway ... 206800/398245 (51.93%)
2024-03-18T17:12:33,375  INFO ParallelProgress:26 Imputing headway ... 207000/398245 (51.98%)
2024-03-18T17:12:34,375  INFO ParallelProgress:26 Imputing headway ... 207500/398245 (52.10%)
2024-03-18T17:12:35,375  INFO ParallelProgress:26 Imputing headway ... 207600/398245 (52.13%)
2024-03-18T17:12:36,376  INFO ParallelProgress:26 Imputing headway ... 207800/398245 (52.18%)
2024-03-18T17:12:37,376  INFO ParallelProgress:26 Imputing headway ... 208000/398245 (52.23%)
2024-03-18T17:12:38,376  INFO ParallelProgress:26 Imputing headway ... 208400/398245 (52.33%)
2024-03-18T17:12:39,377  INFO ParallelProgress:26 Imputing headway ... 208900/398245 (52.46%)
2024-03-18T17:12:40,377  INFO ParallelProgress:26 Imputing headway ... 209100/398245 (52.51%)
2024-03-18T17:12:41,378  INFO ParallelProgress:26 Imputing headway ... 209300/398245 (52.56%)
2024-03-18T17:12:42,378  INFO ParallelProgress:26 Imputing headway ... 210000/398245 (52.73%)
2024-03-18T17:12:44,378  INFO ParallelProgress:26 Imputing headway ... 210300/398245 (52.81%)
2024-03-18T17:12:47,379  INFO ParallelProgress:26 Imputing headway ... 210400/398245 (52.83%)
2024-03-18T17:12:49,379  INFO ParallelProgress:26 Imputing headway ... 210500/398245 (52.86%)
2024-03-18T17:12:50,380  INFO ParallelProgress:26 Imputing headway ... 210600/398245 (52.88%)
2024-03-18T17:12:51,380  INFO ParallelProgress:26 Imputing headway ... 210700/398245 (52.91%)
2024-03-18T17:12:52,380  INFO ParallelProgress:26 Imputing headway ... 211400/398245 (53.08%)
2024-03-18T17:12:53,381  INFO ParallelProgress:26 Imputing headway ... 211500/398245 (53.11%)
2024-03-18T17:12:55,381  INFO ParallelProgress:26 Imputing headway ... 211600/398245 (53.13%)
2024-03-18T17:12:56,381  INFO ParallelProgress:26 Imputing headway ... 211700/398245 (53.16%)
2024-03-18T17:12:57,382  INFO ParallelProgress:26 Imputing headway ... 212000/398245 (53.23%)
2024-03-18T17:12:58,382  INFO ParallelProgress:26 Imputing headway ... 212200/398245 (53.28%)
2024-03-18T17:12:59,382  INFO ParallelProgress:26 Imputing headway ... 212700/398245 (53.41%)
2024-03-18T17:13:00,383  INFO ParallelProgress:26 Imputing headway ... 212900/398245 (53.46%)
2024-03-18T17:13:01,383  INFO ParallelProgress:26 Imputing headway ... 213400/398245 (53.59%)
2024-03-18T17:13:02,383  INFO ParallelProgress:26 Imputing headway ... 213700/398245 (53.66%)
2024-03-18T17:13:03,384  INFO ParallelProgress:26 Imputing headway ... 214100/398245 (53.76%)
2024-03-18T17:13:04,384  INFO ParallelProgress:26 Imputing headway ... 214600/398245 (53.89%)
2024-03-18T17:13:05,384  INFO ParallelProgress:26 Imputing headway ... 214800/398245 (53.94%)
2024-03-18T17:13:06,385  INFO ParallelProgress:26 Imputing headway ... 214900/398245 (53.96%)
2024-03-18T17:13:07,385  INFO ParallelProgress:26 Imputing headway ... 215100/398245 (54.01%)
2024-03-18T17:13:08,385  INFO ParallelProgress:26 Imputing headway ... 215300/398245 (54.06%)
2024-03-18T17:13:09,386  INFO ParallelProgress:26 Imputing headway ... 215400/398245 (54.09%)
2024-03-18T17:13:10,386  INFO ParallelProgress:26 Imputing headway ... 215500/398245 (54.11%)
2024-03-18T17:13:11,386  INFO ParallelProgress:26 Imputing headway ... 215600/398245 (54.14%)
2024-03-18T17:13:14,387  INFO ParallelProgress:26 Imputing headway ... 215700/398245 (54.16%)
2024-03-18T17:13:18,387  INFO ParallelProgress:26 Imputing headway ... 216100/398245 (54.26%)
2024-03-18T17:13:20,388  INFO ParallelProgress:26 Imputing headway ... 216200/398245 (54.29%)
2024-03-18T17:13:22,388  INFO ParallelProgress:26 Imputing headway ... 216300/398245 (54.31%)
2024-03-18T17:13:25,389  INFO ParallelProgress:26 Imputing headway ... 216500/398245 (54.36%)
2024-03-18T17:13:27,389  INFO ParallelProgress:26 Imputing headway ... 216700/398245 (54.41%)
2024-03-18T17:13:29,390  INFO ParallelProgress:26 Imputing headway ... 216800/398245 (54.44%)
2024-03-18T17:13:30,390  INFO ParallelProgress:26 Imputing headway ... 217000/398245 (54.49%)
2024-03-18T17:13:32,390  INFO ParallelProgress:26 Imputing headway ... 217300/398245 (54.56%)
2024-03-18T17:13:33,391  INFO ParallelProgress:26 Imputing headway ... 217400/398245 (54.59%)
2024-03-18T17:13:38,391  INFO ParallelProgress:26 Imputing headway ... 217500/398245 (54.61%)
2024-03-18T17:13:39,392  INFO ParallelProgress:26 Imputing headway ... 217600/398245 (54.64%)
2024-03-18T17:13:41,392  INFO ParallelProgress:26 Imputing headway ... 217700/398245 (54.66%)
2024-03-18T17:13:42,392  INFO ParallelProgress:26 Imputing headway ... 217800/398245 (54.69%)
2024-03-18T17:13:43,393  INFO ParallelProgress:26 Imputing headway ... 218000/398245 (54.74%)
2024-03-18T17:13:44,393  INFO ParallelProgress:26 Imputing headway ... 218100/398245 (54.77%)
2024-03-18T17:13:45,393  INFO ParallelProgress:26 Imputing headway ... 218200/398245 (54.79%)
2024-03-18T17:13:46,394  INFO ParallelProgress:26 Imputing headway ... 218400/398245 (54.84%)
2024-03-18T17:13:50,394  INFO ParallelProgress:26 Imputing headway ... 218500/398245 (54.87%)
2024-03-18T17:13:52,395  INFO ParallelProgress:26 Imputing headway ... 218600/398245 (54.89%)
2024-03-18T17:13:53,395  INFO ParallelProgress:26 Imputing headway ... 218700/398245 (54.92%)
2024-03-18T17:13:56,395  INFO ParallelProgress:26 Imputing headway ... 219000/398245 (54.99%)
2024-03-18T17:14:01,396  INFO ParallelProgress:26 Imputing headway ... 219300/398245 (55.07%)
2024-03-18T17:14:02,396  INFO ParallelProgress:26 Imputing headway ... 219400/398245 (55.09%)
2024-03-18T17:14:03,397  INFO ParallelProgress:26 Imputing headway ... 219600/398245 (55.14%)
2024-03-18T17:14:06,397  INFO ParallelProgress:26 Imputing headway ... 219700/398245 (55.17%)
2024-03-18T17:14:09,398  INFO ParallelProgress:26 Imputing headway ... 220000/398245 (55.24%)
2024-03-18T17:14:11,398  INFO ParallelProgress:26 Imputing headway ... 220200/398245 (55.29%)
2024-03-18T17:14:12,399  INFO ParallelProgress:26 Imputing headway ... 220300/398245 (55.32%)
2024-03-18T17:14:16,399  INFO ParallelProgress:26 Imputing headway ... 220400/398245 (55.34%)
2024-03-18T17:14:18,400  INFO ParallelProgress:26 Imputing headway ... 220500/398245 (55.37%)
2024-03-18T17:14:19,400  INFO ParallelProgress:26 Imputing headway ... 220600/398245 (55.39%)
2024-03-18T17:14:22,401  INFO ParallelProgress:26 Imputing headway ... 221000/398245 (55.49%)
2024-03-18T17:14:23,401  INFO ParallelProgress:26 Imputing headway ... 221200/398245 (55.54%)
2024-03-18T17:14:25,401  INFO ParallelProgress:26 Imputing headway ... 221300/398245 (55.57%)
2024-03-18T17:14:26,402  INFO ParallelProgress:26 Imputing headway ... 221500/398245 (55.62%)
2024-03-18T17:14:27,402  INFO ParallelProgress:26 Imputing headway ... 221700/398245 (55.67%)
2024-03-18T17:14:29,403  INFO ParallelProgress:26 Imputing headway ... 222000/398245 (55.74%)
2024-03-18T17:14:30,403  INFO ParallelProgress:26 Imputing headway ... 222300/398245 (55.82%)
2024-03-18T17:14:31,403  INFO ParallelProgress:26 Imputing headway ... 222700/398245 (55.92%)
2024-03-18T17:14:32,404  INFO ParallelProgress:26 Imputing headway ... 223000/398245 (56.00%)
2024-03-18T17:14:33,404  INFO ParallelProgress:26 Imputing headway ... 223600/398245 (56.15%)
2024-03-18T17:14:35,405  INFO ParallelProgress:26 Imputing headway ... 223800/398245 (56.20%)
2024-03-18T17:14:36,405  INFO ParallelProgress:26 Imputing headway ... 224100/398245 (56.27%)
2024-03-18T17:14:37,405  INFO ParallelProgress:26 Imputing headway ... 224600/398245 (56.40%)
2024-03-18T17:14:40,406  INFO ParallelProgress:26 Imputing headway ... 224800/398245 (56.45%)
2024-03-18T17:14:41,406  INFO ParallelProgress:26 Imputing headway ... 225200/398245 (56.55%)
2024-03-18T17:14:42,407  INFO ParallelProgress:26 Imputing headway ... 225600/398245 (56.65%)
2024-03-18T17:14:43,407  INFO ParallelProgress:26 Imputing headway ... 225700/398245 (56.67%)
2024-03-18T17:14:44,408  INFO ParallelProgress:26 Imputing headway ... 225800/398245 (56.70%)
2024-03-18T17:14:45,408  INFO ParallelProgress:26 Imputing headway ... 225900/398245 (56.72%)
2024-03-18T17:14:46,408  INFO ParallelProgress:26 Imputing headway ... 226100/398245 (56.77%)
2024-03-18T17:14:47,409  INFO ParallelProgress:26 Imputing headway ... 226400/398245 (56.85%)
2024-03-18T17:14:48,409  INFO ParallelProgress:26 Imputing headway ... 226600/398245 (56.90%)
2024-03-18T17:14:49,409  INFO ParallelProgress:26 Imputing headway ... 226800/398245 (56.95%)
2024-03-18T17:14:50,410  INFO ParallelProgress:26 Imputing headway ... 227000/398245 (57.00%)
2024-03-18T17:14:51,410  INFO ParallelProgress:26 Imputing headway ... 227400/398245 (57.10%)
2024-03-18T17:14:52,411  INFO ParallelProgress:26 Imputing headway ... 227700/398245 (57.18%)
2024-03-18T17:14:53,411  INFO ParallelProgress:26 Imputing headway ... 228000/398245 (57.25%)
2024-03-18T17:14:54,411  INFO ParallelProgress:26 Imputing headway ... 228300/398245 (57.33%)
2024-03-18T17:14:55,412  INFO ParallelProgress:26 Imputing headway ... 228400/398245 (57.35%)
2024-03-18T17:14:56,412  INFO ParallelProgress:26 Imputing headway ... 228600/398245 (57.40%)
2024-03-18T17:14:58,413  INFO ParallelProgress:26 Imputing headway ... 228700/398245 (57.43%)
2024-03-18T17:15:02,413  INFO ParallelProgress:26 Imputing headway ... 228800/398245 (57.45%)
2024-03-18T17:15:05,414  INFO ParallelProgress:26 Imputing headway ... 229200/398245 (57.55%)
2024-03-18T17:15:06,414  INFO ParallelProgress:26 Imputing headway ... 229300/398245 (57.58%)
2024-03-18T17:15:07,415  INFO ParallelProgress:26 Imputing headway ... 229400/398245 (57.60%)
2024-03-18T17:15:08,415  INFO ParallelProgress:26 Imputing headway ... 229500/398245 (57.63%)
2024-03-18T17:15:09,415  INFO ParallelProgress:26 Imputing headway ... 229700/398245 (57.68%)
2024-03-18T17:15:13,416  INFO ParallelProgress:26 Imputing headway ... 229800/398245 (57.70%)
2024-03-18T17:15:19,417  INFO ParallelProgress:26 Imputing headway ... 230000/398245 (57.75%)
2024-03-18T17:15:21,417  INFO ParallelProgress:26 Imputing headway ... 230100/398245 (57.78%)
2024-03-18T17:15:22,418  INFO ParallelProgress:26 Imputing headway ... 230200/398245 (57.80%)
2024-03-18T17:15:23,418  INFO ParallelProgress:26 Imputing headway ... 230400/398245 (57.85%)
2024-03-18T17:15:24,418  INFO ParallelProgress:26 Imputing headway ... 230500/398245 (57.88%)
2024-03-18T17:15:25,419  INFO ParallelProgress:26 Imputing headway ... 230600/398245 (57.90%)
2024-03-18T17:15:27,419  INFO ParallelProgress:26 Imputing headway ... 230700/398245 (57.93%)
2024-03-18T17:15:28,420  INFO ParallelProgress:26 Imputing headway ... 230800/398245 (57.95%)
2024-03-18T17:15:33,420  INFO ParallelProgress:26 Imputing headway ... 230900/398245 (57.98%)
2024-03-18T17:15:35,421  INFO ParallelProgress:26 Imputing headway ... 231200/398245 (58.05%)
2024-03-18T17:15:36,421  INFO ParallelProgress:26 Imputing headway ... 231300/398245 (58.08%)
2024-03-18T17:15:37,422  INFO ParallelProgress:26 Imputing headway ... 231500/398245 (58.13%)
2024-03-18T17:15:40,422  INFO ParallelProgress:26 Imputing headway ... 231700/398245 (58.18%)
2024-03-18T17:15:42,423  INFO ParallelProgress:26 Imputing headway ... 231800/398245 (58.21%)
